[Format]      =  4.0
[Frequency]   =  0
[Precision]   =  1e-008
[MinAngle]    =  30
[DoSmartMesh] =  1
[Depth]       =  40
[LengthUnits] =  millimeters
[ProblemType] =  planar
[Coordinates] =  cartesian
[ACSolver]    =  0
[PrevType]    =  0
[PrevSoln]    =  ""
[Comment]     =  "Add comments here."
[PointProps]   = 0
[BdryProps]   = 1
  <BeginBdry>
    <BdryName> = "a0"
    <BdryType> = 0
    <A_0> = 0
    <A_1> = 0
    <A_2> = 0
    <Phi> = 0
    <c0> = 0
    <c0i> = 0
    <c1> = 0
    <c1i> = 0
    <Mu_ssd> = 0
    <Sigma_ssd> = 0
    <innerangle> = 0
    <outerangle> = 0
  <EndBdry>
[BlockProps]  = 12
  <BeginBlock>
    <BlockName> = "N55_0"
    <Mu_x> = 1
    <Mu_y> = 1
    <H_c> = 922850
    <H_cAngle> = 0
    <J_re> = 0
    <J_im> = 0
    <Sigma> = 0.66700000000000004
    <d_lam> = 0
    <Phi_h> = 0
    <Phi_hx> = 0
    <Phi_hy> = 0
    <LamType> = 0
    <LamFill> = 1
    <NStrands> = 0
    <WireD> = 0
    <BHPoints> = 10
      0	0
      0.075300000000000006	5371
      0.15060000000000001	12456
      0.22589999999999999	22657
      0.30120000000000002	39606
      0.3765	72533
      0.45179999999999998	124321
      0.52710000000000001	180991
      0.60240000000000005	238036
      1.506	922850
  <EndBlock>
  <BeginBlock>
    <BlockName> = "N55_1"
    <Mu_x> = 1
    <Mu_y> = 1
    <H_c> = 922850
    <H_cAngle> = 0
    <J_re> = 0
    <J_im> = 0
    <Sigma> = 0.66700000000000004
    <d_lam> = 0
    <Phi_h> = 0
    <Phi_hx> = 0
    <Phi_hy> = 0
    <LamType> = 0
    <LamFill> = 1
    <NStrands> = 0
    <WireD> = 0
    <BHPoints> = 10
      0	0
      0.075300000000000006	5371
      0.15060000000000001	12456
      0.22589999999999999	22657
      0.30120000000000002	39606
      0.3765	72533
      0.45179999999999998	124321
      0.52710000000000001	180991
      0.60240000000000005	238036
      1.506	922850
  <EndBlock>
  <BeginBlock>
    <BlockName> = "N55_2"
    <Mu_x> = 1
    <Mu_y> = 1
    <H_c> = 922850
    <H_cAngle> = 0
    <J_re> = 0
    <J_im> = 0
    <Sigma> = 0.66700000000000004
    <d_lam> = 0
    <Phi_h> = 0
    <Phi_hx> = 0
    <Phi_hy> = 0
    <LamType> = 0
    <LamFill> = 1
    <NStrands> = 0
    <WireD> = 0
    <BHPoints> = 10
      0	0
      0.075300000000000006	5371
      0.15060000000000001	12456
      0.22589999999999999	22657
      0.30120000000000002	39606
      0.3765	72533
      0.45179999999999998	124321
      0.52710000000000001	180991
      0.60240000000000005	238036
      1.506	922850
  <EndBlock>
  <BeginBlock>
    <BlockName> = "N55_3"
    <Mu_x> = 1
    <Mu_y> = 1
    <H_c> = 922850
    <H_cAngle> = 0
    <J_re> = 0
    <J_im> = 0
    <Sigma> = 0.66700000000000004
    <d_lam> = 0
    <Phi_h> = 0
    <Phi_hx> = 0
    <Phi_hy> = 0
    <LamType> = 0
    <LamFill> = 1
    <NStrands> = 0
    <WireD> = 0
    <BHPoints> = 10
      0	0
      0.075300000000000006	5371
      0.15060000000000001	12456
      0.22589999999999999	22657
      0.30120000000000002	39606
      0.3765	72533
      0.45179999999999998	124321
      0.52710000000000001	180991
      0.60240000000000005	238036
      1.506	922850
  <EndBlock>
  <BeginBlock>
    <BlockName> = "1018 steel"
    <Mu_x> = 1
    <Mu_y> = 1
    <H_c> = 0
    <H_cAngle> = 0
    <J_re> = 0
    <J_im> = 0
    <Sigma> = 5.7999999999999998
    <d_lam> = 0.5
    <Phi_h> = 20
    <Phi_hx> = 0
    <Phi_hy> = 0
    <LamType> = 0
    <LamFill> = 0.97999999999999998
    <NStrands> = 0
    <WireD> = 0
    <BHPoints> = 13
      0	0
      0.25030000000000002	238.73249999999999
      0.92500000000000004	795.77499999999998
      1.25	1591.55
      1.3899999999999999	2387.3249999999998
      1.5249999999999999	3978.875
      1.71	7957.75
      1.8700000000000001	15915.5
      1.9550000000000001	23873.25
      2.02	39788.75
      2.1099999999999999	79577.5
      2.2250000000000001	159155
      2.4300000000000002	318310
  <EndBlock>
  <BeginBlock>
    <BlockName> = "air"
    <Mu_x> = 1
    <Mu_y> = 1
    <H_c> = 0
    <H_cAngle> = 0
    <J_re> = 0
    <J_im> = 0
    <Sigma> = 0
    <d_lam> = 0
    <Phi_h> = 0
    <Phi_hx> = 0
    <Phi_hy> = 0
    <LamType> = 0
    <LamFill> = 1
    <NStrands> = 0
    <WireD> = 0
    <BHPoints> = 0
  <EndBlock>
  <BeginBlock>
    <BlockName> = "A"
    <Mu_x> = 1
    <Mu_y> = 1
    <H_c> = 0
    <H_cAngle> = 0
    <J_re> = 0
    <J_im> = 0
    <Sigma> = 58
    <d_lam> = 0
    <Phi_h> = 0
    <Phi_hx> = 0
    <Phi_hy> = 0
    <LamType> = 3
    <LamFill> = 1
    <NStrands> = 0
    <WireD> = 1
    <BHPoints> = 0
  <EndBlock>
  <BeginBlock>
    <BlockName> = "B"
    <Mu_x> = 1
    <Mu_y> = 1
    <H_c> = 0
    <H_cAngle> = 0
    <J_re> = 0
    <J_im> = 0
    <Sigma> = 58
    <d_lam> = 0
    <Phi_h> = 0
    <Phi_hx> = 0
    <Phi_hy> = 0
    <LamType> = 3
    <LamFill> = 1
    <NStrands> = 0
    <WireD> = 1
    <BHPoints> = 0
  <EndBlock>
  <BeginBlock>
    <BlockName> = "C"
    <Mu_x> = 1
    <Mu_y> = 1
    <H_c> = 0
    <H_cAngle> = 0
    <J_re> = 0
    <J_im> = 0
    <Sigma> = 58
    <d_lam> = 0
    <Phi_h> = 0
    <Phi_hx> = 0
    <Phi_hy> = 0
    <LamType> = 3
    <LamFill> = 1
    <NStrands> = 0
    <WireD> = 1
    <BHPoints> = 0
  <EndBlock>
  <BeginBlock>
    <BlockName> = "a"
    <Mu_x> = 1
    <Mu_y> = 1
    <H_c> = 0
    <H_cAngle> = 0
    <J_re> = 0
    <J_im> = 0
    <Sigma> = 58
    <d_lam> = 0
    <Phi_h> = 0
    <Phi_hx> = 0
    <Phi_hy> = 0
    <LamType> = 3
    <LamFill> = 1
    <NStrands> = 0
    <WireD> = 1
    <BHPoints> = 0
  <EndBlock>
  <BeginBlock>
    <BlockName> = "b"
    <Mu_x> = 1
    <Mu_y> = 1
    <H_c> = 0
    <H_cAngle> = 0
    <J_re> = 0
    <J_im> = 0
    <Sigma> = 58
    <d_lam> = 0
    <Phi_h> = 0
    <Phi_hx> = 0
    <Phi_hy> = 0
    <LamType> = 3
    <LamFill> = 1
    <NStrands> = 0
    <WireD> = 1
    <BHPoints> = 0
  <EndBlock>
  <BeginBlock>
    <BlockName> = "c"
    <Mu_x> = 1
    <Mu_y> = 1
    <H_c> = 0
    <H_cAngle> = 0
    <J_re> = 0
    <J_im> = 0
    <Sigma> = 58
    <d_lam> = 0
    <Phi_h> = 0
    <Phi_hx> = 0
    <Phi_hy> = 0
    <LamType> = 3
    <LamFill> = 1
    <NStrands> = 0
    <WireD> = 1
    <BHPoints> = 0
  <EndBlock>
[CircuitProps]  = 0
[NumPoints] = 134
-0.45000020135449059	22.495499950621209	0	0
-0.45000038986579671	23.050000033994486	0	0
-3.0399999783229936	25.019999932444367	0	0
0.44999952689990641	22.495500023359021	0	0
0.45000030431442672	23.050000365551341	0	0
3.0400000519106398	25.019999727509756	0	0
-5.9299994862028411	36.529999752758322	0	0
-4.6670371024457591	31.500000000000004	0	0
5.9300002565980003	36.529999554345416	0	0
4.6670376188624942	31.5	0	0
-11.637461581391705	19.256674327392307	0	0
-11.914711786333923	19.7368853917385	0	0
-15.142717174954036	20.147955555020264	0	0
-10.858038989693211	19.706674254512301	0	0
-11.135288487528648	20.186886025965276	0	0
-9.8772825912942501	23.187955392658502	0	0
-23.400530075859486	28.670908043026554	0	0
-19.791772691122546	24.946281667986941	0	0
-13.129468910510596	34.600907742596355	0	0
-11.708226861647441	29.613319028641065	0	0
-19.706674528746795	10.858038369229504	0	0
-20.1868857816043	11.135288247660563	0	0
-23.187955533343256	9.877282757490331	0	0
-19.256674727612388	11.63746103366581	0	0
-19.736885721650843	11.914711878022693	0	0
-20.14795534074786	15.142717136215508	0	0
-34.600907529229389	13.129469676898836	0	0
-29.613318770432699	11.708227308877461	0	0
-28.670907485998352	23.40053064383482	0	0
-24.946281409778567	19.791773138352561	0	0
-22.495499950621209	-0.4500002013544892	0	0
-23.050000033994486	-0.45000038986579532	0	0
-25.019999932444367	-3.0399999783229923	0	0
-22.495500023359021	0.4499995268999078	0	0
-23.050000365551341	0.45000030431442811	0	0
-25.019999727509756	3.0400000519106412	0	0
-36.529999752758322	-5.9299994862028385	0	0
-31.500000000000004	-4.6670371024457573	0	0
-36.529999554345416	5.930000256598003	0	0
-31.5	4.667037618862496	0	0
-19.256674327392307	-11.637461581391701	0	0
-19.7368853917385	-11.914711786333919	0	0
-20.147955555020268	-15.142717174954033	0	0
-19.706674254512301	-10.858038989693208	0	0
-20.186886025965276	-11.135288487528644	0	0
-23.187955392658502	-9.8772825912942466	0	0
-28.670908043026554	-23.400530075859482	0	0
-24.946281667986945	-19.791772691122539	0	0
-34.600907742596355	-13.129468910510592	0	0
-29.613319028641065	-11.708226861647436	0	0
-10.858038369229501	-19.706674528746799	0	0
-11.13528824766056	-20.1868857816043	0	0
-9.8772827574903275	-23.18795553334326	0	0
-11.637461033665806	-19.256674727612392	0	0
-11.91471187802269	-19.736885721650847	0	0
-15.142717136215502	-20.147955340747863	0	0
-13.129469676898829	-34.600907529229396	0	0
-11.708227308877454	-29.613318770432702	0	0
-23.400530643834813	-28.670907485998356	0	0
-19.791773138352553	-24.946281409778571	0	0
0.45000020135448782	-22.495499950621209	0	0
0.45000038986579388	-23.050000033994486	0	0
3.0399999783229905	-25.019999932444367	0	0
-0.44999952689990919	-22.495500023359021	0	0
-0.45000030431442956	-23.050000365551341	0	0
-3.0400000519106429	-25.019999727509756	0	0
5.9299994862028367	-36.529999752758322	0	0
4.6670371024457555	-31.500000000000004	0	0
-5.9300002565980048	-36.529999554345416	0	0
-4.6670376188624978	-31.5	0	0
11.637461581391708	-19.256674327392304	0	0
11.914711786333926	-19.7368853917385	0	0
15.142717174954043	-20.14795555502026	0	0
10.858038989693215	-19.706674254512297	0	0
11.135288487528651	-20.186886025965272	0	0
9.8772825912942555	-23.187955392658498	0	0
23.400530075859493	-28.670908043026543	0	0
19.791772691122549	-24.946281667986938	0	0
13.129468910510603	-34.600907742596355	0	0
11.708226861647447	-29.613319028641062	0	0
19.706674528746792	-10.858038369229513	0	0
20.186885781604293	-11.135288247660572	0	0
23.187955533343253	-9.8772827574903399	0	0
19.256674727612385	-11.637461033665819	0	0
19.73688572165084	-11.914711878022702	0	0
20.147955340747853	-15.142717136215515	0	0
34.600907529229382	-13.12946967689885	0	0
29.613318770432691	-11.708227308877472	0	0
28.670907485998338	-23.400530643834834	0	0
24.946281409778557	-19.791773138352568	0	0
22.495499950621209	0.45000020135448648	0	0
23.050000033994486	0.45000038986579249	0	0
25.019999932444367	3.0399999783229892	0	0
22.495500023359021	-0.44999952689991052	0	0
23.050000365551341	-0.45000030431443094	0	0
25.019999727509756	-3.0400000519106443	0	0
36.529999752758322	5.929999486202834	0	0
31.500000000000004	4.6670371024457529	0	0
36.529999554345416	-5.9300002565980074	0	0
31.5	-4.6670376188625005	0	0
19.256674327392304	11.637461581391708	0	0
19.7368853917385	11.914711786333926	0	0
20.14795555502026	15.142717174954043	0	0
19.706674254512297	10.858038989693215	0	0
20.186886025965272	11.135288487528651	0	0
23.187955392658498	9.8772825912942555	0	0
28.670908043026543	23.400530075859493	0	0
24.946281667986938	19.791772691122549	0	0
34.600907742596355	13.129468910510603	0	0
29.613319028641062	11.708226861647447	0	0
10.858038369229513	19.706674528746792	0	0
11.135288247660572	20.186885781604293	0	0
9.8772827574903399	23.187955533343253	0	0
11.637461033665819	19.256674727612385	0	0
11.914711878022702	19.73688572165084	0	0
15.142717136215515	20.147955340747853	0	0
13.12946967689885	34.600907529229382	0	0
11.708227308877472	29.613318770432691	0	0
23.400530643834834	28.670907485998338	0	0
19.791773138352568	24.946281409778557	0	0
43.250000000000028	6.3837823915946501e-014	0	0
-43.250000000000028	0.80000000000011973	0	0
-10	0	0	0
10	0	0	0
15.556349000000001	15.556349000000001	0	0
12.727922	12.727922	0	0
-15.556349000000001	15.556349000000001	0	0
-12.727922	12.727922	0	0
-15.556349000000001	-15.556349000000001	0	0
-12.727922	-12.727922	0	0
15.556349000000001	-15.556349000000001	0	0
12.727922	-12.727922	0	0
-22	0	0	0
22	0	0	0
[NumSegments] = 124
0	1	-1	0	0	0
1	2	-1	0	0	0
3	4	-1	0	0	0
4	5	-1	0	0	0
1	4	-1	0	0	0
6	7	-1	0	0	0
8	9	-1	0	0	0
7	2	-1	0	0	0
9	5	-1	0	0	0
7	9	-1	0	0	0
10	11	-1	0	0	0
11	12	-1	0	0	0
13	14	-1	0	0	0
14	15	-1	0	0	0
11	14	-1	0	0	0
16	17	-1	0	0	0
18	19	-1	0	0	0
17	12	-1	0	0	0
19	15	-1	0	0	0
17	19	-1	0	0	0
20	21	-1	0	0	0
21	22	-1	0	0	0
23	24	-1	0	0	0
24	25	-1	0	0	0
21	24	-1	0	0	0
26	27	-1	0	0	0
28	29	-1	0	0	0
27	22	-1	0	0	0
29	25	-1	0	0	0
27	29	-1	0	0	0
30	31	-1	0	0	0
31	32	-1	0	0	0
33	34	-1	0	0	0
34	35	-1	0	0	0
31	34	-1	0	0	0
36	37	-1	0	0	0
38	39	-1	0	0	0
37	32	-1	0	0	0
39	35	-1	0	0	0
37	39	-1	0	0	0
40	41	-1	0	0	0
41	42	-1	0	0	0
43	44	-1	0	0	0
44	45	-1	0	0	0
41	44	-1	0	0	0
46	47	-1	0	0	0
48	49	-1	0	0	0
47	42	-1	0	0	0
49	45	-1	0	0	0
47	49	-1	0	0	0
50	51	-1	0	0	0
51	52	-1	0	0	0
53	54	-1	0	0	0
54	55	-1	0	0	0
51	54	-1	0	0	0
56	57	-1	0	0	0
58	59	-1	0	0	0
57	52	-1	0	0	0
59	55	-1	0	0	0
57	59	-1	0	0	0
60	61	-1	0	0	0
61	62	-1	0	0	0
63	64	-1	0	0	0
64	65	-1	0	0	0
61	64	-1	0	0	0
66	67	-1	0	0	0
68	69	-1	0	0	0
67	62	-1	0	0	0
69	65	-1	0	0	0
67	69	-1	0	0	0
70	71	-1	0	0	0
71	72	-1	0	0	0
73	74	-1	0	0	0
74	75	-1	0	0	0
71	74	-1	0	0	0
76	77	-1	0	0	0
78	79	-1	0	0	0
77	72	-1	0	0	0
79	75	-1	0	0	0
77	79	-1	0	0	0
80	81	-1	0	0	0
81	82	-1	0	0	0
83	84	-1	0	0	0
84	85	-1	0	0	0
81	84	-1	0	0	0
86	87	-1	0	0	0
88	89	-1	0	0	0
87	82	-1	0	0	0
89	85	-1	0	0	0
87	89	-1	0	0	0
90	91	-1	0	0	0
91	92	-1	0	0	0
93	94	-1	0	0	0
94	95	-1	0	0	0
91	94	-1	0	0	0
96	97	-1	0	0	0
98	99	-1	0	0	0
97	92	-1	0	0	0
99	95	-1	0	0	0
97	99	-1	0	0	0
100	101	-1	0	0	0
101	102	-1	0	0	0
103	104	-1	0	0	0
104	105	-1	0	0	0
101	104	-1	0	0	0
106	107	-1	0	0	0
108	109	-1	0	0	0
107	102	-1	0	0	0
109	105	-1	0	0	0
107	109	-1	0	0	0
110	111	-1	0	0	0
111	112	-1	0	0	0
113	114	-1	0	0	0
114	115	-1	0	0	0
111	114	-1	0	0	0
116	117	-1	0	0	0
118	119	-1	0	0	0
117	112	-1	0	0	0
119	115	-1	0	0	0
117	119	-1	0	0	0
124	125	-1	0	0	0
126	127	-1	0	0	0
128	129	-1	0	0	0
130	131	-1	0	0	0
[NumArcSegments] = 38
8	6	18.440000000000001	1	0	0	0	1
120	121	180	1	1	0	0	1
121	120	180	1	1	0	0	1
18	16	18.440000000000001	1	0	0	0	1
28	26	18.440000000000001	1	0	0	0	1
38	36	18.440000000000001	1	0	0	0	1
48	46	18.440000000000001	1	0	0	0	1
58	56	18.440000000000001	1	0	0	0	1
68	66	18.440000000000001	1	0	0	0	1
78	76	18.440000000000001	1	0	0	0	1
88	86	18.440000000000001	1	0	0	0	1
98	96	18.440000000000001	1	0	0	0	1
108	106	18.440000000000001	1	0	0	0	1
118	116	18.440000000000001	1	0	0	0	1
0	13	30	1	0	0	0	1
10	23	30	1	0	0	0	1
20	33	30	1	0	0	0	1
30	43	30	1	0	0	0	1
40	53	30	1	0	0	0	1
50	63	30	1	0	0	0	1
60	73	30	1	0	0	0	1
70	83	30	1	0	0	0	1
80	93	30	1	0	0	0	1
90	103	30	1	0	0	0	1
100	113	30	1	0	0	0	1
110	3	30	1	0	0	0	1
122	123	180	1	1	0	0	1
123	122	180	1	1	0	0	1
125	127	90	1	0	0	0	1
127	129	90	1	0	0	0	1
129	131	90	1	0	0	0	1
131	125	90	1	0	0	0	1
132	128	45	1	0	0	0	1
128	130	89.999999799238665	1	0	0	0	1
130	133	45.000000200761335	1	0	0	0	1
133	124	45	1	0	0	0	1
124	126	89.999999799238665	1	0	0	0	1
126	132	45.000000200761335	1	0	0	0	1
[NumHoles] = 0
[NumBlockLabels] = 32
0	20	1	-1	0	90	0	1	0
-20	0	2	-1	0	0	0	1	0
0	-20	3	-1	0	-90	0	1	0
20	0	4	-1	0	-180	0	1	0
0	11	5	-1	0	0	0	1	0
0	40	5	-1	0	0	0	1	0
0	22.850000000000001	6	-1	0	0	0	1	0
0	0	6	-1	0	0	0	1	0
0	33.5	11	-1	0	0	0	1	0
16.75	29.011851	9	-1	0	0	0	1	0
29.011851	16.75	10	-1	0	0	0	1	0
33.5	0	8	-1	0	0	0	1	0
29.011851	-16.75	12	-1	0	0	0	1	0
16.75	-29.011851	7	-1	0	0	0	1	0
0	-33.5	11	-1	0	0	0	1	0
-16.75	-29.011851	9	-1	0	0	0	1	0
-29.011851	-16.75	10	-1	0	0	0	1	0
-33.5	0	8	-1	0	0	0	1	0
-29.011851	16.75	12	-1	0	0	0	1	0
-16.75	29.011851	7	-1	0	0	0	1	0
0	27.5	7	-1	0	0	0	1	0
13.75	23.815698999999999	11	-1	0	0	0	1	0
23.815698999999999	13.75	9	-1	0	0	0	1	0
27.5	0	10	-1	0	0	0	1	0
23.815698999999999	-13.75	8	-1	0	0	0	1	0
13.75	-23.815698999999999	12	-1	0	0	0	1	0
0	-27.5	7	-1	0	0	0	1	0
-13.75	-23.815698999999999	11	-1	0	0	0	1	0
-23.815698999999999	-13.75	9	-1	0	0	0	1	0
-27.5	0	10	-1	0	0	0	1	0
-23.815698999999999	13.75	8	-1	0	0	0	1	0
-13.75	23.815698999999999	12	-1	0	0	0	1	0
