[Format]      =  4.0
[Frequency]   =  0
[Precision]   =  1e-008
[MinAngle]    =  30
[DoSmartMesh] =  1
[Depth]       =  40
[LengthUnits] =  millimeters
[ProblemType] =  planar
[Coordinates] =  cartesian
[ACSolver]    =  0
[PrevType]    =  0
[PrevSoln]    =  ""
[Comment]     =  "Add comments here."
[PointProps]   = 0
[BdryProps]   = 1
  <BeginBdry>
    <BdryName> = "a0"
    <BdryType> = 0
    <A_0> = 0
    <A_1> = 0
    <A_2> = 0
    <Phi> = 0
    <c0> = 0
    <c0i> = 0
    <c1> = 0
    <c1i> = 0
    <Mu_ssd> = 0
    <Sigma_ssd> = 0
    <innerangle> = 0
    <outerangle> = 0
  <EndBdry>
[BlockProps]  = 16
  <BeginBlock>
    <BlockName> = "N55_0"
    <Mu_x> = 1
    <Mu_y> = 1
    <H_c> = 922850
    <H_cAngle> = 0
    <J_re> = 0
    <J_im> = 0
    <Sigma> = 0.66700000000000004
    <d_lam> = 0
    <Phi_h> = 0
    <Phi_hx> = 0
    <Phi_hy> = 0
    <LamType> = 0
    <LamFill> = 1
    <NStrands> = 0
    <WireD> = 0
    <BHPoints> = 10
      0	0
      0.075300000000000006	5371
      0.15060000000000001	12456
      0.22589999999999999	22657
      0.30120000000000002	39606
      0.3765	72533
      0.45179999999999998	124321
      0.52710000000000001	180991
      0.60240000000000005	238036
      1.506	922850
  <EndBlock>
  <BeginBlock>
    <BlockName> = "N55_1"
    <Mu_x> = 1
    <Mu_y> = 1
    <H_c> = 922850
    <H_cAngle> = 0
    <J_re> = 0
    <J_im> = 0
    <Sigma> = 0.66700000000000004
    <d_lam> = 0
    <Phi_h> = 0
    <Phi_hx> = 0
    <Phi_hy> = 0
    <LamType> = 0
    <LamFill> = 1
    <NStrands> = 0
    <WireD> = 0
    <BHPoints> = 10
      0	0
      0.075300000000000006	5371
      0.15060000000000001	12456
      0.22589999999999999	22657
      0.30120000000000002	39606
      0.3765	72533
      0.45179999999999998	124321
      0.52710000000000001	180991
      0.60240000000000005	238036
      1.506	922850
  <EndBlock>
  <BeginBlock>
    <BlockName> = "N55_2"
    <Mu_x> = 1
    <Mu_y> = 1
    <H_c> = 922850
    <H_cAngle> = 0
    <J_re> = 0
    <J_im> = 0
    <Sigma> = 0.66700000000000004
    <d_lam> = 0
    <Phi_h> = 0
    <Phi_hx> = 0
    <Phi_hy> = 0
    <LamType> = 0
    <LamFill> = 1
    <NStrands> = 0
    <WireD> = 0
    <BHPoints> = 10
      0	0
      0.075300000000000006	5371
      0.15060000000000001	12456
      0.22589999999999999	22657
      0.30120000000000002	39606
      0.3765	72533
      0.45179999999999998	124321
      0.52710000000000001	180991
      0.60240000000000005	238036
      1.506	922850
  <EndBlock>
  <BeginBlock>
    <BlockName> = "N55_3"
    <Mu_x> = 1
    <Mu_y> = 1
    <H_c> = 922850
    <H_cAngle> = 0
    <J_re> = 0
    <J_im> = 0
    <Sigma> = 0.66700000000000004
    <d_lam> = 0
    <Phi_h> = 0
    <Phi_hx> = 0
    <Phi_hy> = 0
    <LamType> = 0
    <LamFill> = 1
    <NStrands> = 0
    <WireD> = 0
    <BHPoints> = 10
      0	0
      0.075300000000000006	5371
      0.15060000000000001	12456
      0.22589999999999999	22657
      0.30120000000000002	39606
      0.3765	72533
      0.45179999999999998	124321
      0.52710000000000001	180991
      0.60240000000000005	238036
      1.506	922850
  <EndBlock>
  <BeginBlock>
    <BlockName> = "N55_4"
    <Mu_x> = 1
    <Mu_y> = 1
    <H_c> = 922850
    <H_cAngle> = 0
    <J_re> = 0
    <J_im> = 0
    <Sigma> = 0.66700000000000004
    <d_lam> = 0
    <Phi_h> = 0
    <Phi_hx> = 0
    <Phi_hy> = 0
    <LamType> = 0
    <LamFill> = 1
    <NStrands> = 0
    <WireD> = 0
    <BHPoints> = 10
      0	0
      0.075300000000000006	5371
      0.15060000000000001	12456
      0.22589999999999999	22657
      0.30120000000000002	39606
      0.3765	72533
      0.45179999999999998	124321
      0.52710000000000001	180991
      0.60240000000000005	238036
      1.506	922850
  <EndBlock>
  <BeginBlock>
    <BlockName> = "N55_5"
    <Mu_x> = 1
    <Mu_y> = 1
    <H_c> = 922850
    <H_cAngle> = 0
    <J_re> = 0
    <J_im> = 0
    <Sigma> = 0.66700000000000004
    <d_lam> = 0
    <Phi_h> = 0
    <Phi_hx> = 0
    <Phi_hy> = 0
    <LamType> = 0
    <LamFill> = 1
    <NStrands> = 0
    <WireD> = 0
    <BHPoints> = 10
      0	0
      0.075300000000000006	5371
      0.15060000000000001	12456
      0.22589999999999999	22657
      0.30120000000000002	39606
      0.3765	72533
      0.45179999999999998	124321
      0.52710000000000001	180991
      0.60240000000000005	238036
      1.506	922850
  <EndBlock>
  <BeginBlock>
    <BlockName> = "N55_6"
    <Mu_x> = 1
    <Mu_y> = 1
    <H_c> = 922850
    <H_cAngle> = 0
    <J_re> = 0
    <J_im> = 0
    <Sigma> = 0.66700000000000004
    <d_lam> = 0
    <Phi_h> = 0
    <Phi_hx> = 0
    <Phi_hy> = 0
    <LamType> = 0
    <LamFill> = 1
    <NStrands> = 0
    <WireD> = 0
    <BHPoints> = 10
      0	0
      0.075300000000000006	5371
      0.15060000000000001	12456
      0.22589999999999999	22657
      0.30120000000000002	39606
      0.3765	72533
      0.45179999999999998	124321
      0.52710000000000001	180991
      0.60240000000000005	238036
      1.506	922850
  <EndBlock>
  <BeginBlock>
    <BlockName> = "N55_7"
    <Mu_x> = 1
    <Mu_y> = 1
    <H_c> = 922850
    <H_cAngle> = 0
    <J_re> = 0
    <J_im> = 0
    <Sigma> = 0.66700000000000004
    <d_lam> = 0
    <Phi_h> = 0
    <Phi_hx> = 0
    <Phi_hy> = 0
    <LamType> = 0
    <LamFill> = 1
    <NStrands> = 0
    <WireD> = 0
    <BHPoints> = 10
      0	0
      0.075300000000000006	5371
      0.15060000000000001	12456
      0.22589999999999999	22657
      0.30120000000000002	39606
      0.3765	72533
      0.45179999999999998	124321
      0.52710000000000001	180991
      0.60240000000000005	238036
      1.506	922850
  <EndBlock>
  <BeginBlock>
    <BlockName> = "1018 steel"
    <Mu_x> = 1
    <Mu_y> = 1
    <H_c> = 0
    <H_cAngle> = 0
    <J_re> = 0
    <J_im> = 0
    <Sigma> = 5.7999999999999998
    <d_lam> = 0.5
    <Phi_h> = 20
    <Phi_hx> = 0
    <Phi_hy> = 0
    <LamType> = 0
    <LamFill> = 0.97999999999999998
    <NStrands> = 0
    <WireD> = 0
    <BHPoints> = 13
      0	0
      0.25030000000000002	238.73249999999999
      0.92500000000000004	795.77499999999998
      1.25	1591.55
      1.3899999999999999	2387.3249999999998
      1.5249999999999999	3978.875
      1.71	7957.75
      1.8700000000000001	15915.5
      1.9550000000000001	23873.25
      2.02	39788.75
      2.1099999999999999	79577.5
      2.2250000000000001	159155
      2.4300000000000002	318310
  <EndBlock>
  <BeginBlock>
    <BlockName> = "air"
    <Mu_x> = 1
    <Mu_y> = 1
    <H_c> = 0
    <H_cAngle> = 0
    <J_re> = 0
    <J_im> = 0
    <Sigma> = 0
    <d_lam> = 0
    <Phi_h> = 0
    <Phi_hx> = 0
    <Phi_hy> = 0
    <LamType> = 0
    <LamFill> = 1
    <NStrands> = 0
    <WireD> = 0
    <BHPoints> = 0
  <EndBlock>
  <BeginBlock>
    <BlockName> = "A"
    <Mu_x> = 1
    <Mu_y> = 1
    <H_c> = 0
    <H_cAngle> = 0
    <J_re> = 0
    <J_im> = 0
    <Sigma> = 58
    <d_lam> = 0
    <Phi_h> = 0
    <Phi_hx> = 0
    <Phi_hy> = 0
    <LamType> = 3
    <LamFill> = 1
    <NStrands> = 0
    <WireD> = 1
    <BHPoints> = 0
  <EndBlock>
  <BeginBlock>
    <BlockName> = "B"
    <Mu_x> = 1
    <Mu_y> = 1
    <H_c> = 0
    <H_cAngle> = 0
    <J_re> = 0
    <J_im> = 0
    <Sigma> = 58
    <d_lam> = 0
    <Phi_h> = 0
    <Phi_hx> = 0
    <Phi_hy> = 0
    <LamType> = 3
    <LamFill> = 1
    <NStrands> = 0
    <WireD> = 1
    <BHPoints> = 0
  <EndBlock>
  <BeginBlock>
    <BlockName> = "C"
    <Mu_x> = 1
    <Mu_y> = 1
    <H_c> = 0
    <H_cAngle> = 0
    <J_re> = 0
    <J_im> = 0
    <Sigma> = 58
    <d_lam> = 0
    <Phi_h> = 0
    <Phi_hx> = 0
    <Phi_hy> = 0
    <LamType> = 3
    <LamFill> = 1
    <NStrands> = 0
    <WireD> = 1
    <BHPoints> = 0
  <EndBlock>
  <BeginBlock>
    <BlockName> = "a"
    <Mu_x> = 1
    <Mu_y> = 1
    <H_c> = 0
    <H_cAngle> = 0
    <J_re> = 0
    <J_im> = 0
    <Sigma> = 58
    <d_lam> = 0
    <Phi_h> = 0
    <Phi_hx> = 0
    <Phi_hy> = 0
    <LamType> = 3
    <LamFill> = 1
    <NStrands> = 0
    <WireD> = 1
    <BHPoints> = 0
  <EndBlock>
  <BeginBlock>
    <BlockName> = "b"
    <Mu_x> = 1
    <Mu_y> = 1
    <H_c> = 0
    <H_cAngle> = 0
    <J_re> = 0
    <J_im> = 0
    <Sigma> = 58
    <d_lam> = 0
    <Phi_h> = 0
    <Phi_hx> = 0
    <Phi_hy> = 0
    <LamType> = 3
    <LamFill> = 1
    <NStrands> = 0
    <WireD> = 1
    <BHPoints> = 0
  <EndBlock>
  <BeginBlock>
    <BlockName> = "c"
    <Mu_x> = 1
    <Mu_y> = 1
    <H_c> = 0
    <H_cAngle> = 0
    <J_re> = 0
    <J_im> = 0
    <Sigma> = 58
    <d_lam> = 0
    <Phi_h> = 0
    <Phi_hx> = 0
    <Phi_hy> = 0
    <LamType> = 3
    <LamFill> = 1
    <NStrands> = 0
    <WireD> = 1
    <BHPoints> = 0
  <EndBlock>
[CircuitProps]  = 0
[NumPoints] = 142
-0.45000020135449059	22.495499950621209	0	0
-0.45000038986579671	23.050000033994486	0	0
-3.0399999783229936	25.019999932444367	0	0
0.44999952689990641	22.495500023359021	0	0
0.45000030431442672	23.050000365551341	0	0
3.0400000519106398	25.019999727509756	0	0
0	23.050000000000001	0	0
-5.9299994862028411	36.529999752758322	0	0
5.9300002565980003	36.529999554345416	0	0
0	37.008157809431545	0	0
-11.637461581391705	19.256674327392307	0	0
-11.914711786333923	19.7368853917385	0	0
-15.142717174954036	20.147955555020264	0	0
-10.858038989693211	19.706674254512301	0	0
-11.135288487528648	20.186886025965276	0	0
-9.8772825912942501	23.187955392658502	0	0
-11.524999999999999	19.961885557231312	0	0
-23.400530075859486	28.670908043026554	0	0
-13.129468910510596	34.600907742596355	0	0
-18.504078904715769	32.050004810231179	0	0
-19.706674528746795	10.858038369229504	0	0
-20.1868857816043	11.135288247660563	0	0
-23.187955533343256	9.877282757490331	0	0
-19.256674727612388	11.63746103366581	0	0
-19.736885721650843	11.914711878022693	0	0
-20.14795534074786	15.142717136215508	0	0
-19.961885557231309	11.525000000000002	0	0
-34.600907529229389	13.129469676898836	0	0
-28.670907485998352	23.40053064383482	0	0
-32.050004810231179	18.504078904715776	0	0
-22.495499950621209	-0.45000020135448615	0	0
-23.050000033994486	-0.45000038986579405	0	0
-25.019999932444364	-3.0399999783229887	0	0
-22.495500023359021	0.44999952689991041	0	0
-23.050000365551341	0.4500003043144325	0	0
-25.019999727509756	3.0400000519106438	0	0
-23.050000000000001	3.5527136788005009e-015	0	0
-36.529999752758322	-5.9299994862028296	0	0
-36.529999554345416	5.9300002565980101	0	0
-37.008157809431545	7.1054273576010019e-015	0	0
-19.256674327392307	-11.637461581391701	0	0
-19.7368853917385	-11.914711786333919	0	0
-20.147955555020268	-15.142717174954033	0	0
-19.706674254512301	-10.858038989693208	0	0
-20.186886025965276	-11.135288487528644	0	0
-23.187955392658502	-9.8772825912942466	0	0
-19.961885557231312	-11.524999999999995	0	0
-28.670908043026554	-23.400530075859482	0	0
-34.600907742596355	-13.129468910510592	0	0
-32.050004810231179	-18.504078904715765	0	0
-10.858038369229508	-19.706674528746795	0	0
-11.135288247660565	-20.186885781604293	0	0
-9.8772827574903346	-23.187955533343249	0	0
-11.637461033665815	-19.256674727612388	0	0
-11.9147118780227	-19.736885721650843	0	0
-15.142717136215509	-20.147955340747856	0	0
-11.525000000000006	-19.961885557231305	0	0
-13.129469676898845	-34.600907529229382	0	0
-23.400530643834827	-28.670907485998342	0	0
-18.504078904715779	-32.050004810231172	0	0
0.45000020135448782	-22.495499950621209	0	0
0.45000038986579388	-23.050000033994486	0	0
3.0399999783229905	-25.019999932444367	0	0
-0.44999952689990919	-22.495500023359021	0	0
-0.45000030431442956	-23.050000365551341	0	0
-3.0400000519106429	-25.019999727509756	0	0
-2.8228108720346494e-015	-23.050000000000001	0	0
5.9299994862028367	-36.529999752758322	0	0
-5.9300002565980048	-36.529999554345416	0	0
-4.532192200366046e-015	-37.008157809431545	0	0
11.637461581391703	-19.256674327392307	0	0
11.914711786333921	-19.7368853917385	0	0
15.142717174954035	-20.147955555020268	0	0
10.85803898969321	-19.706674254512301	0	0
11.135288487528646	-20.186886025965276	0	0
9.8772825912942466	-23.187955392658502	0	0
11.524999999999997	-19.961885557231312	0	0
23.400530075859482	-28.670908043026557	0	0
13.129468910510592	-34.600907742596355	0	0
18.504078904715765	-32.050004810231179	0	0
19.706674528746795	-10.858038369229506	0	0
20.1868857816043	-11.135288247660565	0	0
23.187955533343256	-9.8772827574903346	0	0
19.256674727612388	-11.637461033665812	0	0
19.736885721650843	-11.914711878022695	0	0
20.147955340747856	-15.142717136215509	0	0
19.961885557231309	-11.525000000000004	0	0
34.600907529229389	-13.129469676898839	0	0
28.670907485998349	-23.400530643834824	0	0
32.050004810231179	-18.504078904715779	0	0
22.495499950621209	0.45000020135448338	0	0
23.050000033994486	0.45000038986579122	0	0
25.019999932444364	3.0399999783229856	0	0
22.495500023359021	-0.44999952689991318	0	0
23.050000365551341	-0.45000030431443533	0	0
25.019999727509756	-3.0400000519106469	0	0
23.050000000000001	-6.3755245508351504e-015	0	0
36.529999752758322	5.9299994862028251	0	0
36.529999554345416	-5.9300002565980146	0	0
37.008157809431545	-1.1637619557967048e-014	0	0
19.256674327392307	11.637461581391699	0	0
19.7368853917385	11.914711786333918	0	0
20.147955555020271	15.142717174954031	0	0
19.706674254512301	10.858038989693206	0	0
20.186886025965276	11.135288487528642	0	0
23.187955392658502	9.877282591294243	0	0
19.961885557231312	11.524999999999993	0	0
28.670908043026557	23.400530075859479	0	0
34.600907742596355	13.129468910510589	0	0
32.050004810231179	18.504078904715762	0	0
10.85803836922951	19.706674528746795	0	0
11.135288247660567	20.186885781604293	0	0
9.8772827574903381	23.187955533343249	0	0
11.637461033665817	19.256674727612388	0	0
11.914711878022702	19.736885721650843	0	0
15.142717136215511	20.147955340747853	0	0
11.525000000000007	19.961885557231305	0	0
13.129469676898848	34.600907529229382	0	0
23.400530643834831	28.670907485998338	0	0
18.504078904715783	32.050004810231172	0	0
43.250000000000028	2.9753977059954195e-014	0	0
-43.250000000000028	0.80000000000008575	0	0
-10	0	0	0
10	0	0	0
8.4190360000000002	20.32535	0	0
6.8883020000000004	16.629832	0	0
-8.4190360000000002	20.32535	0	0
-6.8883020000000004	16.629832	0	0
-20.32535	8.4190349999999992	0	0
-16.629832	6.8883020000000004	0	0
-20.32535	-8.4190360000000002	0	0
-16.629832	-6.8883020000000004	0	0
-8.4190349999999992	-20.32535	0	0
-6.8883020000000004	-16.629832	0	0
8.4190360000000002	-20.32535	0	0
6.8883020000000004	-16.629832	0	0
20.32535	-8.4190349999999992	0	0
16.629832	-6.8883020000000004	0	0
20.32535	8.4190360000000002	0	0
16.629832	6.8883020000000004	0	0
-22	0	0	0
22	0	0	0
[NumSegments] = 116
0	1	-1	0	0	0
1	2	-1	0	0	0
3	4	-1	0	0	0
4	5	-1	0	0	0
1	6	-1	0	0	0
7	2	-1	0	0	0
8	5	-1	0	0	0
6	4	-1	0	0	0
9	6	-1	0	0	0
10	11	-1	0	0	0
11	12	-1	0	0	0
13	14	-1	0	0	0
14	15	-1	0	0	0
11	16	-1	0	0	0
17	12	-1	0	0	0
18	15	-1	0	0	0
16	14	-1	0	0	0
19	16	-1	0	0	0
20	21	-1	0	0	0
21	22	-1	0	0	0
23	24	-1	0	0	0
24	25	-1	0	0	0
21	26	-1	0	0	0
27	22	-1	0	0	0
28	25	-1	0	0	0
26	24	-1	0	0	0
29	26	-1	0	0	0
30	31	-1	0	0	0
31	32	-1	0	0	0
33	34	-1	0	0	0
34	35	-1	0	0	0
31	36	-1	0	0	0
37	32	-1	0	0	0
38	35	-1	0	0	0
36	34	-1	0	0	0
39	36	-1	0	0	0
40	41	-1	0	0	0
41	42	-1	0	0	0
43	44	-1	0	0	0
44	45	-1	0	0	0
41	46	-1	0	0	0
47	42	-1	0	0	0
48	45	-1	0	0	0
46	44	-1	0	0	0
49	46	-1	0	0	0
50	51	-1	0	0	0
51	52	-1	0	0	0
53	54	-1	0	0	0
54	55	-1	0	0	0
51	56	-1	0	0	0
57	52	-1	0	0	0
58	55	-1	0	0	0
56	54	-1	0	0	0
59	56	-1	0	0	0
60	61	-1	0	0	0
61	62	-1	0	0	0
63	64	-1	0	0	0
64	65	-1	0	0	0
61	66	-1	0	0	0
67	62	-1	0	0	0
68	65	-1	0	0	0
66	64	-1	0	0	0
69	66	-1	0	0	0
70	71	-1	0	0	0
71	72	-1	0	0	0
73	74	-1	0	0	0
74	75	-1	0	0	0
71	76	-1	0	0	0
77	72	-1	0	0	0
78	75	-1	0	0	0
76	74	-1	0	0	0
79	76	-1	0	0	0
80	81	-1	0	0	0
81	82	-1	0	0	0
83	84	-1	0	0	0
84	85	-1	0	0	0
81	86	-1	0	0	0
87	82	-1	0	0	0
88	85	-1	0	0	0
86	84	-1	0	0	0
89	86	-1	0	0	0
90	91	-1	0	0	0
91	92	-1	0	0	0
93	94	-1	0	0	0
94	95	-1	0	0	0
91	96	-1	0	0	0
97	92	-1	0	0	0
98	95	-1	0	0	0
96	94	-1	0	0	0
99	96	-1	0	0	0
100	101	-1	0	0	0
101	102	-1	0	0	0
103	104	-1	0	0	0
104	105	-1	0	0	0
101	106	-1	0	0	0
107	102	-1	0	0	0
108	105	-1	0	0	0
106	104	-1	0	0	0
109	106	-1	0	0	0
110	111	-1	0	0	0
111	112	-1	0	0	0
113	114	-1	0	0	0
114	115	-1	0	0	0
111	116	-1	0	0	0
117	112	-1	0	0	0
118	115	-1	0	0	0
116	114	-1	0	0	0
119	116	-1	0	0	0
124	125	-1	0	0	0
126	127	-1	0	0	0
128	129	-1	0	0	0
130	131	-1	0	0	0
132	133	-1	0	0	0
134	135	-1	0	0	0
136	137	-1	0	0	0
138	139	-1	0	0	0
[NumArcSegments] = 58
8	9	9.2200000000000006	1	0	0	0	1
120	121	180	1	1	0	0	1
9	7	9.2200000000000006	1	0	0	0	1
18	19	9.2200000000000006	1	0	0	0	1
19	17	9.2200000000000006	1	0	0	0	1
28	29	9.2200000000000006	1	0	0	0	1
29	27	9.2200000000000006	1	0	0	0	1
38	39	9.2200000000000006	1	0	0	0	1
39	37	9.2200000000000006	1	0	0	0	1
48	49	9.2200000000000006	1	0	0	0	1
49	47	9.2200000000000006	1	0	0	0	1
58	59	9.2200000000000006	1	0	0	0	1
59	57	9.2200000000000006	1	0	0	0	1
68	69	9.2200000000000006	1	0	0	0	1
69	67	9.2200000000000006	1	0	0	0	1
78	79	9.2200000000000006	1	0	0	0	1
79	77	9.2200000000000006	1	0	0	0	1
88	89	9.2200000000000006	1	0	0	0	1
89	87	9.2200000000000006	1	0	0	0	1
98	99	9.2200000000000006	1	0	0	0	1
99	97	9.2200000000000006	1	0	0	0	1
108	109	9.2200000000000006	1	0	0	0	1
109	107	9.2200000000000006	1	0	0	0	1
118	119	9.2200000000000006	1	0	0	0	1
119	117	9.2200000000000006	1	0	0	0	1
90	103	27.699999999999999	1	0	0	0	1
100	113	27.699999999999999	1	0	0	0	1
110	3	27.699999999999999	1	0	0	0	1
0	13	27.699999999999999	1	0	0	0	1
10	23	27.699999999999999	1	0	0	0	1
20	33	27.699999999999999	1	0	0	0	1
30	43	27.699999999999999	1	0	0	0	1
40	53	27.699999999999999	1	0	0	0	1
50	63	27.699999999999999	1	0	0	0	1
60	73	27.699999999999999	1	0	0	0	1
70	83	27.699999999999999	1	0	0	0	1
80	93	27.699999999999999	1	0	0	0	1
121	120	180	1	1	0	0	1
122	123	180	1	1	0	0	1
123	122	180	1	1	0	0	1
125	127	45	1	0	0	0	1
127	129	45	1	0	0	0	1
129	131	45	1	0	0	0	1
131	133	45	1	0	0	0	1
133	135	45	1	0	0	0	1
135	137	45	1	0	0	0	1
137	139	45	1	0	0	0	1
139	125	45	1	0	0	0	1
140	130	22.500000890308467	1	0	0	0	1
130	132	45.000001005545421	1	0	0	0	1
132	134	44.999999273772168	1	0	0	0	1
134	136	45.00000059421491	1	0	0	0	1
136	141	22.499998236159115	1	0	0	0	1
141	138	22.500000732885226	1	0	0	0	1
138	124	44.999998376806303	1	0	0	0	1
124	126	45.000002080163753	1	0	0	0	1
126	128	45.000000580548452	1	0	0	0	1
128	140	22.499998229596255	1	0	0	0	1
[NumHoles] = 0
[NumBlockLabels] = 36
0	20	1	-1	0	90	0	1	0
-14.1421355	14.142136000000001	2	-1	0	-45.000001012855819	0	1	0
-20	0	3	-1	0	180	0	1	0
-14.142136000000001	-14.1421355	4	-1	0	-315.00000101285582	0	1	0
0	-20	5	-1	0	-90	0	1	0
14.1421355	-14.142136000000001	6	-1	0	-225.00000101285585	0	1	0
20	0	7	-1	0	0	0	1	0
14.142136000000001	14.1421355	8	-1	0	-135.00000101285585	0	1	0
0	11	9	-1	0	0	0	1	0
0	40	9	-1	0	0	0	1	0
0	22.850000000000001	10	-1	0	0	0	1	0
0	0	10	-1	0	0	0	1	0
2	30.5	11	-1	0	0	0	1	0
13.5	27.5	14	-1	0	0	0	1	0
-13.517949	27.413775000000001	12	-1	0	0	0	1	0
-2.0586570000000002	30.565698999999999	15	-1	0	0	0	1	0
-25.413775000000001	16.982050999999998	13	-1	0	0	0	1	0
-17.065698999999999	25.441343	16	-1	0	0	0	1	0
-30.5	2	11	-1	0	0	0	1	0
-27.5	13.5	14	-1	0	0	0	1	0
-27.413775000000001	-13.517949	12	-1	0	0	0	1	0
-30.565698999999999	-2.0586570000000002	15	-1	0	0	0	1	0
-16.982050999999998	-25.413775000000001	13	-1	0	0	0	1	0
-25.441343	-17.065698999999999	16	-1	0	0	0	1	0
-2	-30.5	11	-1	0	0	0	1	0
-13.5	-27.5	14	-1	0	0	0	1	0
13.517949	-27.413775000000001	12	-1	0	0	0	1	0
2.0586570000000002	-30.565698999999999	15	-1	0	0	0	1	0
25.413775000000001	-16.982050999999998	13	-1	0	0	0	1	0
17.065698999999999	-25.441343	16	-1	0	0	0	1	0
30.5	-2	11	-1	0	0	0	1	0
27.5	-13.5	14	-1	0	0	0	1	0
27.413775000000001	13.517949	12	-1	0	0	0	1	0
30.565698999999999	2.0586570000000002	15	-1	0	0	0	1	0
16.982050999999998	25.413775000000001	13	-1	0	0	0	1	0
25.441343	17.065698999999999	16	-1	0	0	0	1	0
