[Format]      =  4.0
[Frequency]   =  0
[Precision]   =  1e-008
[MinAngle]    =  30
[DoSmartMesh] =  1
[Depth]       =  40
[LengthUnits] =  millimeters
[ProblemType] =  planar
[Coordinates] =  cartesian
[ACSolver]    =  0
[PrevType]    =  0
[PrevSoln]    =  ""
[Comment]     =  "Add comments here."
[PointProps]   = 0
[BdryProps]   = 1
  <BeginBdry>
    <BdryName> = "a0"
    <BdryType> = 0
    <A_0> = 0
    <A_1> = 0
    <A_2> = 0
    <Phi> = 0
    <c0> = 0
    <c0i> = 0
    <c1> = 0
    <c1i> = 0
    <Mu_ssd> = 0
    <Sigma_ssd> = 0
    <innerangle> = 0
    <outerangle> = 0
  <EndBdry>
[BlockProps]  = 12
  <BeginBlock>
    <BlockName> = "N55_0"
    <Mu_x> = 1
    <Mu_y> = 1
    <H_c> = 922850
    <H_cAngle> = 0
    <J_re> = 0
    <J_im> = 0
    <Sigma> = 0.66700000000000004
    <d_lam> = 0
    <Phi_h> = 0
    <Phi_hx> = 0
    <Phi_hy> = 0
    <LamType> = 0
    <LamFill> = 1
    <NStrands> = 0
    <WireD> = 0
    <BHPoints> = 10
      0	0
      0.075300000000000006	5371
      0.15060000000000001	12456
      0.22589999999999999	22657
      0.30120000000000002	39606
      0.3765	72533
      0.45179999999999998	124321
      0.52710000000000001	180991
      0.60240000000000005	238036
      1.506	922850
  <EndBlock>
  <BeginBlock>
    <BlockName> = "N55_1"
    <Mu_x> = 1
    <Mu_y> = 1
    <H_c> = 922850
    <H_cAngle> = 0
    <J_re> = 0
    <J_im> = 0
    <Sigma> = 0.66700000000000004
    <d_lam> = 0
    <Phi_h> = 0
    <Phi_hx> = 0
    <Phi_hy> = 0
    <LamType> = 0
    <LamFill> = 1
    <NStrands> = 0
    <WireD> = 0
    <BHPoints> = 10
      0	0
      0.075300000000000006	5371
      0.15060000000000001	12456
      0.22589999999999999	22657
      0.30120000000000002	39606
      0.3765	72533
      0.45179999999999998	124321
      0.52710000000000001	180991
      0.60240000000000005	238036
      1.506	922850
  <EndBlock>
  <BeginBlock>
    <BlockName> = "N55_2"
    <Mu_x> = 1
    <Mu_y> = 1
    <H_c> = 922850
    <H_cAngle> = 0
    <J_re> = 0
    <J_im> = 0
    <Sigma> = 0.66700000000000004
    <d_lam> = 0
    <Phi_h> = 0
    <Phi_hx> = 0
    <Phi_hy> = 0
    <LamType> = 0
    <LamFill> = 1
    <NStrands> = 0
    <WireD> = 0
    <BHPoints> = 10
      0	0
      0.075300000000000006	5371
      0.15060000000000001	12456
      0.22589999999999999	22657
      0.30120000000000002	39606
      0.3765	72533
      0.45179999999999998	124321
      0.52710000000000001	180991
      0.60240000000000005	238036
      1.506	922850
  <EndBlock>
  <BeginBlock>
    <BlockName> = "N55_3"
    <Mu_x> = 1
    <Mu_y> = 1
    <H_c> = 922850
    <H_cAngle> = 0
    <J_re> = 0
    <J_im> = 0
    <Sigma> = 0.66700000000000004
    <d_lam> = 0
    <Phi_h> = 0
    <Phi_hx> = 0
    <Phi_hy> = 0
    <LamType> = 0
    <LamFill> = 1
    <NStrands> = 0
    <WireD> = 0
    <BHPoints> = 10
      0	0
      0.075300000000000006	5371
      0.15060000000000001	12456
      0.22589999999999999	22657
      0.30120000000000002	39606
      0.3765	72533
      0.45179999999999998	124321
      0.52710000000000001	180991
      0.60240000000000005	238036
      1.506	922850
  <EndBlock>
  <BeginBlock>
    <BlockName> = "1018 steel"
    <Mu_x> = 1
    <Mu_y> = 1
    <H_c> = 0
    <H_cAngle> = 0
    <J_re> = 0
    <J_im> = 0
    <Sigma> = 5.7999999999999998
    <d_lam> = 0.5
    <Phi_h> = 20
    <Phi_hx> = 0
    <Phi_hy> = 0
    <LamType> = 0
    <LamFill> = 0.97999999999999998
    <NStrands> = 0
    <WireD> = 0
    <BHPoints> = 13
      0	0
      0.25030000000000002	238.73249999999999
      0.92500000000000004	795.77499999999998
      1.25	1591.55
      1.3899999999999999	2387.3249999999998
      1.5249999999999999	3978.875
      1.71	7957.75
      1.8700000000000001	15915.5
      1.9550000000000001	23873.25
      2.02	39788.75
      2.1099999999999999	79577.5
      2.2250000000000001	159155
      2.4300000000000002	318310
  <EndBlock>
  <BeginBlock>
    <BlockName> = "air"
    <Mu_x> = 1
    <Mu_y> = 1
    <H_c> = 0
    <H_cAngle> = 0
    <J_re> = 0
    <J_im> = 0
    <Sigma> = 0
    <d_lam> = 0
    <Phi_h> = 0
    <Phi_hx> = 0
    <Phi_hy> = 0
    <LamType> = 0
    <LamFill> = 1
    <NStrands> = 0
    <WireD> = 0
    <BHPoints> = 0
  <EndBlock>
  <BeginBlock>
    <BlockName> = "A"
    <Mu_x> = 1
    <Mu_y> = 1
    <H_c> = 0
    <H_cAngle> = 0
    <J_re> = 0
    <J_im> = 0
    <Sigma> = 58
    <d_lam> = 0
    <Phi_h> = 0
    <Phi_hx> = 0
    <Phi_hy> = 0
    <LamType> = 3
    <LamFill> = 1
    <NStrands> = 0
    <WireD> = 1
    <BHPoints> = 0
  <EndBlock>
  <BeginBlock>
    <BlockName> = "B"
    <Mu_x> = 1
    <Mu_y> = 1
    <H_c> = 0
    <H_cAngle> = 0
    <J_re> = 0
    <J_im> = 0
    <Sigma> = 58
    <d_lam> = 0
    <Phi_h> = 0
    <Phi_hx> = 0
    <Phi_hy> = 0
    <LamType> = 3
    <LamFill> = 1
    <NStrands> = 0
    <WireD> = 1
    <BHPoints> = 0
  <EndBlock>
  <BeginBlock>
    <BlockName> = "C"
    <Mu_x> = 1
    <Mu_y> = 1
    <H_c> = 0
    <H_cAngle> = 0
    <J_re> = 0
    <J_im> = 0
    <Sigma> = 58
    <d_lam> = 0
    <Phi_h> = 0
    <Phi_hx> = 0
    <Phi_hy> = 0
    <LamType> = 3
    <LamFill> = 1
    <NStrands> = 0
    <WireD> = 1
    <BHPoints> = 0
  <EndBlock>
  <BeginBlock>
    <BlockName> = "a"
    <Mu_x> = 1
    <Mu_y> = 1
    <H_c> = 0
    <H_cAngle> = 0
    <J_re> = 0
    <J_im> = 0
    <Sigma> = 58
    <d_lam> = 0
    <Phi_h> = 0
    <Phi_hx> = 0
    <Phi_hy> = 0
    <LamType> = 3
    <LamFill> = 1
    <NStrands> = 0
    <WireD> = 1
    <BHPoints> = 0
  <EndBlock>
  <BeginBlock>
    <BlockName> = "b"
    <Mu_x> = 1
    <Mu_y> = 1
    <H_c> = 0
    <H_cAngle> = 0
    <J_re> = 0
    <J_im> = 0
    <Sigma> = 58
    <d_lam> = 0
    <Phi_h> = 0
    <Phi_hx> = 0
    <Phi_hy> = 0
    <LamType> = 3
    <LamFill> = 1
    <NStrands> = 0
    <WireD> = 1
    <BHPoints> = 0
  <EndBlock>
  <BeginBlock>
    <BlockName> = "c"
    <Mu_x> = 1
    <Mu_y> = 1
    <H_c> = 0
    <H_cAngle> = 0
    <J_re> = 0
    <J_im> = 0
    <Sigma> = 58
    <d_lam> = 0
    <Phi_h> = 0
    <Phi_hx> = 0
    <Phi_hy> = 0
    <LamType> = 3
    <LamFill> = 1
    <NStrands> = 0
    <WireD> = 1
    <BHPoints> = 0
  <EndBlock>
[CircuitProps]  = 0
[NumPoints] = 110
-0.45000020135449059	22.495499950621209	0	0
-0.45000038986579671	23.050000033994486	0	0
-3.0399999783229936	25.019999932444367	0	0
-5.9299994862028411	36.529999752758322	0	0
0.44999952689990641	22.495500023359021	0	0
0.45000030431442672	23.050000365551341	0	0
3.0400000519106398	25.019999727509756	0	0
5.9300002565980003	36.529999554345416	0	0
-11.637461581391705	19.256674327392307	0	0
-11.914711786333923	19.7368853917385	0	0
-15.142717174954036	20.147955555020264	0	0
-23.400530075859486	28.670908043026554	0	0
-10.858038989693211	19.706674254512301	0	0
-11.135288487528648	20.186886025965276	0	0
-9.8772825912942501	23.187955392658502	0	0
-13.129468910510596	34.600907742596355	0	0
-19.706674528746795	10.858038369229504	0	0
-20.1868857816043	11.135288247660563	0	0
-23.187955533343256	9.877282757490331	0	0
-34.600907529229389	13.129469676898836	0	0
-19.256674727612388	11.63746103366581	0	0
-19.736885721650843	11.914711878022693	0	0
-20.14795534074786	15.142717136215508	0	0
-28.670907485998352	23.40053064383482	0	0
-22.495499950621209	-0.45000020135448615	0	0
-23.050000033994486	-0.45000038986579405	0	0
-25.019999932444364	-3.0399999783229887	0	0
-36.529999752758322	-5.9299994862028296	0	0
-22.495500023359021	0.44999952689991041	0	0
-23.050000365551341	0.4500003043144325	0	0
-25.019999727509756	3.0400000519106438	0	0
-36.529999554345416	5.9300002565980101	0	0
-19.256674327392307	-11.637461581391701	0	0
-19.7368853917385	-11.914711786333919	0	0
-20.147955555020268	-15.142717174954033	0	0
-28.670908043026554	-23.400530075859482	0	0
-19.706674254512301	-10.858038989693208	0	0
-20.186886025965276	-11.135288487528644	0	0
-23.187955392658502	-9.8772825912942466	0	0
-34.600907742596355	-13.129468910510592	0	0
-10.858038369229508	-19.706674528746795	0	0
-11.135288247660565	-20.186885781604293	0	0
-9.8772827574903346	-23.187955533343249	0	0
-13.129469676898845	-34.600907529229382	0	0
-11.637461033665815	-19.256674727612388	0	0
-11.9147118780227	-19.736885721650843	0	0
-15.142717136215509	-20.147955340747856	0	0
-23.400530643834827	-28.670907485998342	0	0
0.45000020135448782	-22.495499950621209	0	0
0.45000038986579388	-23.050000033994486	0	0
3.0399999783229905	-25.019999932444367	0	0
5.9299994862028367	-36.529999752758322	0	0
-0.44999952689990919	-22.495500023359021	0	0
-0.45000030431442956	-23.050000365551341	0	0
-3.0400000519106429	-25.019999727509756	0	0
-5.9300002565980048	-36.529999554345416	0	0
11.637461581391703	-19.256674327392307	0	0
11.914711786333921	-19.7368853917385	0	0
15.142717174954035	-20.147955555020268	0	0
23.400530075859482	-28.670908043026557	0	0
10.85803898969321	-19.706674254512301	0	0
11.135288487528646	-20.186886025965276	0	0
9.8772825912942466	-23.187955392658502	0	0
13.129468910510592	-34.600907742596355	0	0
19.706674528746795	-10.858038369229506	0	0
20.1868857816043	-11.135288247660565	0	0
23.187955533343256	-9.8772827574903346	0	0
34.600907529229389	-13.129469676898839	0	0
19.256674727612388	-11.637461033665812	0	0
19.736885721650843	-11.914711878022695	0	0
20.147955340747856	-15.142717136215509	0	0
28.670907485998349	-23.400530643834824	0	0
22.495499950621209	0.45000020135448338	0	0
23.050000033994486	0.45000038986579122	0	0
25.019999932444364	3.0399999783229856	0	0
36.529999752758322	5.9299994862028251	0	0
22.495500023359021	-0.44999952689991318	0	0
23.050000365551341	-0.45000030431443533	0	0
25.019999727509756	-3.0400000519106469	0	0
36.529999554345416	-5.9300002565980146	0	0
19.256674327392307	11.637461581391699	0	0
19.7368853917385	11.914711786333918	0	0
20.147955555020271	15.142717174954031	0	0
28.670908043026557	23.400530075859479	0	0
19.706674254512301	10.858038989693206	0	0
20.186886025965276	11.135288487528642	0	0
23.187955392658502	9.877282591294243	0	0
34.600907742596355	13.129468910510589	0	0
10.85803836922951	19.706674528746795	0	0
11.135288247660567	20.186885781604293	0	0
9.8772827574903381	23.187955533343249	0	0
13.129469676898848	34.600907529229382	0	0
11.637461033665817	19.256674727612388	0	0
11.914711878022702	19.736885721650843	0	0
15.142717136215511	20.147955340747853	0	0
23.400530643834831	28.670907485998338	0	0
43.250000000000007	1.7652546091539989e-014	0	0
-43.250000000000007	0.79999999999999627	0	0
-10	0	0	0
10	0	0	0
15.556349000000001	15.556349000000001	0	0
12.727922	12.727922	0	0
-15.556349000000001	15.556349000000001	0	0
-12.727922	12.727922	0	0
-15.556349000000001	-15.556349000000001	0	0
-12.727922	-12.727922	0	0
15.556349000000001	-15.556349000000001	0	0
12.727922	-12.727922	0	0
-22	0	0	0
22	0	0	0
[NumSegments] = 88
0	1	-1	0	0	0
1	2	-1	0	0	0
2	3	-1	0	0	0
4	5	-1	0	0	0
5	6	-1	0	0	0
6	7	-1	0	0	0
1	5	-1	0	0	0
8	9	-1	0	0	0
9	10	-1	0	0	0
10	11	-1	0	0	0
12	13	-1	0	0	0
13	14	-1	0	0	0
14	15	-1	0	0	0
9	13	-1	0	0	0
16	17	-1	0	0	0
17	18	-1	0	0	0
18	19	-1	0	0	0
20	21	-1	0	0	0
21	22	-1	0	0	0
22	23	-1	0	0	0
17	21	-1	0	0	0
24	25	-1	0	0	0
25	26	-1	0	0	0
26	27	-1	0	0	0
28	29	-1	0	0	0
29	30	-1	0	0	0
30	31	-1	0	0	0
25	29	-1	0	0	0
32	33	-1	0	0	0
33	34	-1	0	0	0
34	35	-1	0	0	0
36	37	-1	0	0	0
37	38	-1	0	0	0
38	39	-1	0	0	0
33	37	-1	0	0	0
40	41	-1	0	0	0
41	42	-1	0	0	0
42	43	-1	0	0	0
44	45	-1	0	0	0
45	46	-1	0	0	0
46	47	-1	0	0	0
41	45	-1	0	0	0
48	49	-1	0	0	0
49	50	-1	0	0	0
50	51	-1	0	0	0
52	53	-1	0	0	0
53	54	-1	0	0	0
54	55	-1	0	0	0
49	53	-1	0	0	0
56	57	-1	0	0	0
57	58	-1	0	0	0
58	59	-1	0	0	0
60	61	-1	0	0	0
61	62	-1	0	0	0
62	63	-1	0	0	0
57	61	-1	0	0	0
64	65	-1	0	0	0
65	66	-1	0	0	0
66	67	-1	0	0	0
68	69	-1	0	0	0
69	70	-1	0	0	0
70	71	-1	0	0	0
65	69	-1	0	0	0
72	73	-1	0	0	0
73	74	-1	0	0	0
74	75	-1	0	0	0
76	77	-1	0	0	0
77	78	-1	0	0	0
78	79	-1	0	0	0
73	77	-1	0	0	0
80	81	-1	0	0	0
81	82	-1	0	0	0
82	83	-1	0	0	0
84	85	-1	0	0	0
85	86	-1	0	0	0
86	87	-1	0	0	0
81	85	-1	0	0	0
88	89	-1	0	0	0
89	90	-1	0	0	0
90	91	-1	0	0	0
92	93	-1	0	0	0
93	94	-1	0	0	0
94	95	-1	0	0	0
89	93	-1	0	0	0
100	101	-1	0	0	0
102	103	-1	0	0	0
104	105	-1	0	0	0
106	107	-1	0	0	0
[NumArcSegments] = 38
7	3	18.440000000000001	1	0	0	0	1
96	97	180	1	1	0	0	1
97	96	180	1	1	0	0	1
15	11	18.440000000000001	1	0	0	0	1
23	19	18.440000000000001	1	0	0	0	1
31	27	18.440000000000001	1	0	0	0	1
39	35	18.440000000000001	1	0	0	0	1
47	43	18.440000000000001	1	0	0	0	1
55	51	18.440000000000001	1	0	0	0	1
63	59	18.440000000000001	1	0	0	0	1
71	67	18.440000000000001	1	0	0	0	1
79	75	18.440000000000001	1	0	0	0	1
87	83	18.440000000000001	1	0	0	0	1
95	91	18.440000000000001	1	0	0	0	1
72	84	27.699999999999999	1	0	0	0	1
80	92	27.699999999999999	1	0	0	0	1
88	4	27.699999999999999	1	0	0	0	1
0	12	27.699999999999999	1	0	0	0	1
8	20	27.699999999999999	1	0	0	0	1
16	28	27.699999999999999	1	0	0	0	1
24	36	27.699999999999999	1	0	0	0	1
32	44	27.699999999999999	1	0	0	0	1
40	52	27.699999999999999	1	0	0	0	1
48	60	27.699999999999999	1	0	0	0	1
56	68	27.699999999999999	1	0	0	0	1
64	76	27.699999999999999	1	0	0	0	1
98	99	180	1	1	0	0	1
99	98	180	1	1	0	0	1
101	103	90	1	0	0	0	1
103	105	90	1	0	0	0	1
105	107	90	1	0	0	0	1
107	101	90	1	0	0	0	1
108	104	45	1	0	0	0	1
104	106	89.999999799238665	1	0	0	0	1
106	109	45.000000200761335	1	0	0	0	1
109	100	45	1	0	0	0	1
100	102	89.999999799238665	1	0	0	0	1
102	108	45.000000200761335	1	0	0	0	1
[NumHoles] = 0
[NumBlockLabels] = 20
0	20	1	-1	0	90	0	1	0
-20	0	2	-1	0	0	0	1	0
0	-20	3	-1	0	-90	0	1	0
20	0	4	-1	0	-180	0	1	0
0	11	5	-1	0	0	0	1	0
0	40	5	-1	0	0	0	1	0
0	22.850000000000001	6	-1	0	0	0	1	0
0	0	6	-1	0	0	0	1	0
0	30.5	7	-1	0	0	0	1	0
15.25	26.413775000000001	11	-1	0	0	0	1	0
26.413775000000001	15.25	9	-1	0	0	0	1	0
30.5	0	10	-1	0	0	0	1	0
26.413775000000001	-15.25	8	-1	0	0	0	1	0
15.25	-26.413775000000001	12	-1	0	0	0	1	0
0	-30.5	7	-1	0	0	0	1	0
-15.25	-26.413775000000001	11	-1	0	0	0	1	0
-26.413775000000001	-15.25	9	-1	0	0	0	1	0
-30.5	0	10	-1	0	0	0	1	0
-26.413775000000001	15.25	8	-1	0	0	0	1	0
-15.25	26.413775000000001	12	-1	0	0	0	1	0
