[Format]      =  4.0
[Frequency]   =  0
[Precision]   =  1e-008
[MinAngle]    =  30
[DoSmartMesh] =  1
[Depth]       =  50
[LengthUnits] =  millimeters
[ProblemType] =  planar
[Coordinates] =  cartesian
[ACSolver]    =  0
[PrevType]    =  0
[PrevSoln]    =  ""
[Comment]     =  "Add comments here."
[PointProps]   = 0
[BdryProps]   = 2
  <BeginBdry>
    <BdryName> = "a0"
    <BdryType> = 0
    <A_0> = 0
    <A_1> = 0
    <A_2> = 0
    <Phi> = 0
    <c0> = 0
    <c0i> = 0
    <c1> = 0
    <c1i> = 0
    <Mu_ssd> = 0
    <Sigma_ssd> = 0
    <innerangle> = 0
    <outerangle> = 0
  <EndBdry>
  <BeginBdry>
    <BdryName> = "PB_Radial"
    <BdryType> = 4
    <A_0> = 0
    <A_1> = 0
    <A_2> = 0
    <Phi> = 0
    <c0> = 0
    <c0i> = 0
    <c1> = 0
    <c1i> = 0
    <Mu_ssd> = 0
    <Sigma_ssd> = 0
    <innerangle> = 0
    <outerangle> = 0
  <EndBdry>
[BlockProps]  = 6
  <BeginBlock>
    <BlockName> = "air"
    <Mu_x> = 1
    <Mu_y> = 1
    <H_c> = 0
    <H_cAngle> = 0
    <J_re> = 0
    <J_im> = 0
    <Sigma> = 0
    <d_lam> = 0
    <Phi_h> = 0
    <Phi_hx> = 0
    <Phi_hy> = 0
    <LamType> = 0
    <LamFill> = 1
    <NStrands> = 0
    <WireD> = 0
    <BHPoints> = 0
  <EndBlock>
  <BeginBlock>
    <BlockName> = "stator_steel"
    <Mu_x> = 1
    <Mu_y> = 1
    <H_c> = 0
    <H_cAngle> = 0
    <J_re> = 0
    <J_im> = 0
    <Sigma> = 1900000
    <d_lam> = 0.34000000000000002
    <Phi_h> = 0
    <Phi_hx> = 0
    <Phi_hy> = 0
    <LamType> = 0
    <LamFill> = 0.97999999999999998
    <NStrands> = 0
    <WireD> = 0
    <BHPoints> = 7
      0	0
      0.67079999999999995	200
      1.0188999999999999	700
      1.4156	6773
      1.5772999999999999	35206
      2.3883000000000001	509252
      3.6682000000000001	1527756
  <EndBlock>
  <BeginBlock>
    <BlockName> = "rotor_steel"
    <Mu_x> = 1
    <Mu_y> = 1
    <H_c> = 0
    <H_cAngle> = 0
    <J_re> = 0
    <J_im> = 0
    <Sigma> = 5800000
    <d_lam> = 0
    <Phi_h> = 0
    <Phi_hx> = 0
    <Phi_hy> = 0
    <LamType> = 0
    <LamFill> = 1
    <NStrands> = 0
    <WireD> = 0
    <BHPoints> = 7
      0	0
      0.80000000000000004	400
      1.2	1000
      1.5	2500
      1.8	8000
      2	20000
      2.2000000000000002	50000
  <EndBlock>
  <BeginBlock>
    <BlockName> = "magnet"
    <Mu_x> = 1.1100000000000001
    <Mu_y> = 1.1100000000000001
    <H_c> = 724000
    <H_cAngle> = 0
    <J_re> = 0
    <J_im> = 0
    <Sigma> = 667000
    <d_lam> = 0
    <Phi_h> = 0
    <Phi_hx> = 0
    <Phi_hy> = 0
    <LamType> = 0
    <LamFill> = 1
    <NStrands> = 0
    <WireD> = 0
    <BHPoints> = 0
  <EndBlock>
  <BeginBlock>
    <BlockName> = "copper"
    <Mu_x> = 1
    <Mu_y> = 1
    <H_c> = 0
    <H_cAngle> = 0
    <J_re> = 0
    <J_im> = 0
    <Sigma> = 58000000
    <d_lam> = 0
    <Phi_h> = 0
    <Phi_hx> = 0
    <Phi_hy> = 0
    <LamType> = 3
    <LamFill> = 1
    <NStrands> = 0
    <WireD> = 0
    <BHPoints> = 0
  <EndBlock>
  <BeginBlock>
    <BlockName> = "air_gap"
    <Mu_x> = 1
    <Mu_y> = 1
    <H_c> = 0
    <H_cAngle> = 0
    <J_re> = 0
    <J_im> = 0
    <Sigma> = 0
    <d_lam> = 0
    <Phi_h> = 0
    <Phi_hx> = 0
    <Phi_hy> = 0
    <LamType> = 0
    <LamFill> = 1
    <NStrands> = 0
    <WireD> = 0
    <BHPoints> = 0
  <EndBlock>
[CircuitProps]  = 0
[NumPoints] = 30
-9.1131213480373212	22.001021153983483	0	0
-7.9500000000000002	22.801021153983484	0	0
7.9500000000000002	22.801021153983484	0	0
9.1131213480373212	22.001021153983483	0	0
4.3625911289620234	10.532226670628669	0	0
-4.3625911289620234	10.532226670628669	0	0
7.9500000000000002	26.378021153983482	0	0
-7.9500000000000002	26.378021153983482	0	0
-4.443621210668268	27.89832845415831	0	0
-10.810806964313786	26.099596793443851	0	0
-5.6208876547796232	28.704844921586776	0	0
-9.4845909599358968	27.66956874117669	0	0
-9.263051927036372	42.297587035161087	0	0
-13.126755232192647	41.262310854751007	0	0
2.9284102408313601	28.097809762709158	0	0
-2.9284102408313601	28.097809762709158	0	0
2	29.18154382482188	0	0
-2	29.18154382482188	0	0
2	43.253785961462377	0	0
-2	43.253785961462377	0	0
10.810806964313786	26.099596793443851	0	0
4.443621210668268	27.89832845415831	0	0
9.4845909599358968	27.66956874117669	0	0
5.6208876547796232	28.704844921586776	0	0
13.126755232192647	41.262310854751007	0	0
9.263051927036372	42.297587035161087	0	0
19.134171618254488	46.193976625564339	0	0
-19.134171618254488	46.193976625564339	0	0
16.570192621408385	40.003983757738716	0	0
-16.570192621408385	40.003983757738716	0	0
[NumSegments] = 23
0	1	-1	0	0	0
1	2	-1	0	0	0
2	3	-1	0	0	0
3	4	-1	0	0	0
5	0	-1	0	0	0
7	1	-1	0	0	0
6	2	-1	0	0	0
8	10	-1	0	0	0
11	9	-1	0	0	0
10	12	-1	0	0	0
13	11	-1	0	0	0
14	16	-1	0	0	0
17	15	-1	0	0	0
16	18	-1	0	0	0
19	17	-1	0	0	0
20	22	-1	0	0	0
23	21	-1	0	0	0
22	24	-1	0	0	0
25	23	-1	0	0	0
26	28	-1	0	0	0
28	20	-1	2	0	0
9	29	-1	2	0	0
29	27	-1	0	0	0
[NumArcSegments] = 12
4	5	45	1	1	0	0	0.84999999999999998
6	7	33.539999999999999	1	0	0	0	0.80000000000000004
8	9	13.44	1	0	0	0	0.28999999999999998
14	15	11.9	1	0	0	0	0.28000000000000003
20	21	13.460000000000001	1	0	0	0	0.34000000000000002
26	27	45	1	1	0	0	0.60999999999999999
28	24	4.8600000000000003	1	0	0	0	1
25	18	9.6999999999999993	1	0	0	0	1
19	12	9.6999999999999993	1	0	0	0	1
13	29	4.8600000000000003	1	0	0	0	1
21	14	3.1000000000000001	1	0	0	0	0.22
15	8	3.1000000000000001	1	0	0	0	0.22
[NumHoles] = 0
[NumBlockLabels] = 11
0	17.686499999999999	3	-1	0	0	0	1	0
0	25.761500000000002	4	-1	0	90	0	1	0
0	27.899999999999999	6	-1	0	0	0	1	0
0	5.7000000000000002	1	-1	0	0	0	1	0
0	46.649999999999999	2	-1	0	0	0	1	0
4.6695745266723447	35.468939915648065	5	-1	0	0	0	1	0
-4.6695745266723447	35.468939915648065	5	-1	0	0	0	1	0
12.820613394983116	33.398839757937388	5	-1	0	0	0	1	0
-12.820613394983116	33.398839757937388	5	-1	0	0	0	1	0
9.0806348052965049	24.94883908186587	1	-1	0	0	0	1	0
-9.0806348052965049	24.94883908186587	1	-1	0	0	0	1	0
