[Format]      =  4.0
[Frequency]   =  0
[Precision]   =  1e-008
[MinAngle]    =  30
[DoSmartMesh] =  1
[Depth]       =  37
[LengthUnits] =  millimeters
[ProblemType] =  planar
[Coordinates] =  cartesian
[ACSolver]    =  0
[PrevType]    =  0
[PrevSoln]    =  ""
[Comment]     =  "Add comments here."
[PointProps]   = 0
[BdryProps]   = 0
[BlockProps]  = 0
[CircuitProps]  = 0
[NumPoints] = 75
0	22.5	0	0
0	43.25	0	0
22.300000000000001	0	0	0
22.5	0	0	0
43.25	0	0	0
5.3875970000000004	21.845452999999999	0	0
5.5311120000000003	22.381059	0	0
3.5392379999999992	24.954274000000002	0	0
3.726719999999998	36.820067000000002	0	0
15.588523	16.224919	0	0
15.980613	16.617008999999999	0	0
15.542206999999999	19.841415999999999	0	0
21.637467999999998	30.023754	0	0
21.612515999999999	6.2569299999999979	0	0
22.148122000000001	6.4004459999999979	0	0
23.380654	9.4120670000000004	0	0
33.750473	15.182600000000001	0	0
6.2569299999999979	21.612515999999999	0	0
6.4004459999999979	22.148122000000001	0	0
9.4120670000000004	23.380654	0	0
15.182600000000001	33.750473	0	0
16.224919	15.588523	0	0
16.617008999999999	15.980613	0	0
19.841415999999999	15.542206999999999	0	0
30.023754	21.637467999999998	0	0
21.845452999999999	5.3875970000000004	0	0
22.381059	5.5311120000000003	0	0
24.954274000000002	3.5392379999999992	0	0
36.820067000000002	3.726719999999998	0	0
1.4000000000000001e-015	22.300000000000001	0	0
9.5784164450395721	35.74713530974455	0	0
6.4756524539505369	24.167464012338922	0	0
17.6918115	17.6918115	0	0
26.168719864704961	26.168719864704961	0	0
24.167463999999999	6.4756524999999989	0	0
35.747135297405627	9.578416491089035	0	0
0	0	0	0
6	0	0	0
0	6	0	0
0	22.100000000000001	0	0
22.100000000000001	0	0	0
12.618682	18.021345	0	0
18.021345	12.618682	0	0
16.579665065665331	16.579665065665331	0	0
13.599074999999999	13.599076	0	0
3.8202600000000002	21.665770999999999	0	0
-9.9999999999999995e-007	19.231997	0	0
-4.7288177018600663e-007	23.447188296262219	0	0
2.2648199999999998	19.892130999999999	0	0
21.665770999999999	3.8202600000000002	0	0
19.231997	9.9999999999999995e-007	0	0
23.447186726576643	5.271182286215037e-007	0	0
19.892132	2.264821	0	0
12.891969	12.891969	0	0
12.856783	12.927493999999999	0	0
12.927493999999999	12.856783	0	0
10.063542	10.063542	0	0
10.028283	10.098993	0	0
10.098993	10.028283	0	0
8.6493289999999998	8.6493289999999998	0	0
8.6140519999999992	8.6847630000000002	0	0
8.6847630000000002	8.6140519999999992	0	0
5.8209020000000002	5.8209020000000002	0	0
5.7856050000000003	5.8563150000000004	0	0
5.8563150000000004	5.7856050000000003	0	0
4.6022771616319877	21.513229532720693	0	0
9.9417324278381365	19.625543465934332	0	0
3.8369102969018072	19.665470467698121	0	0
9.0618182525811761	17.501242730304643	0	0
18.466451722775876	11.957849337167316	0	0
20.907221199403367	6.8474887162539684	0	0
16.618692657753304	11.192482472437137	0	0
18.782920396627091	5.9675745131839806	0	0
11.397632	15.992521	0	0
7.4254340000000001	17.637858999999999	0	0
[NumSegments] = 48
0	47	-1	0	0	0
2	3	-1	0	0	0
3	51	-1	0	0	0
5	6	-1	0	0	0
6	7	-1	0	0	0
7	8	-1	0	0	0
9	10	-1	0	0	0
10	11	-1	0	0	0
11	12	-1	0	0	0
13	14	-1	0	0	0
14	15	-1	0	0	0
15	16	-1	0	0	0
17	18	-1	0	0	0
18	19	-1	0	0	0
19	20	-1	0	0	0
21	22	-1	0	0	0
22	23	-1	0	0	0
23	24	-1	0	0	0
25	26	-1	0	0	0
26	27	-1	0	0	0
27	28	-1	0	0	0
29	0	-1	0	0	0
7	31	-1	0	0	0
31	19	-1	0	0	0
30	31	-1	0	0	0
11	32	-1	0	0	0
32	23	-1	0	0	0
32	33	-1	0	0	0
15	34	-1	0	0	0
34	27	-1	0	0	0
34	35	-1	0	0	0
47	1	-1	0	0	0
51	4	-1	0	0	0
38	46	-1	0	0	0
46	39	-1	0	0	0
37	50	-1	0	0	0
50	40	-1	0	0	0
57	54	-1	0	0	0
58	55	-1	0	0	0
63	60	-1	0	0	0
64	61	-1	0	0	0
65	67	-1	0	0	0
66	68	-1	0	0	0
67	68	-1	0	0	0
69	71	-1	0	0	0
70	72	-1	0	0	0
71	72	-1	0	0	0
73	74	-1	0	0	0
[NumArcSegments] = 26
4	1	90	1	0	0	0	1
20	30	9.2200000000000095	1	0	0	0	1
30	8	9.21999999999999	1	0	0	0	1
24	33	9.2199999999999989	1	0	0	0	1
33	12	9.2199999999999971	1	0	0	0	1
28	35	9.2200000738041901	1	0	0	0	1
35	16	9.2199999261958077	1	0	0	0	1
5	0	13.859999999999999	1	0	0	0	1
9	17	27.699999999999999	1	0	0	0	1
13	21	27.699999999999999	1	0	0	0	1
3	25	13.84	1	0	0	0	1
2	29	90	1	0	0	0	1
37	38	90	1	0	0	0	1
40	39	90	1	0	0	0	1
41	44	64.999990388515684	1	0	0	0	1
44	42	65.000009611484273	1	0	0	0	1
46	48	32.499997924621177	1	0	0	0	1
48	45	32.500002075378845	1	0	0	0	1
49	52	32.49999690076509	1	0	0	0	1
52	50	32.500003099234924	1	0	0	0	1
65	45	2.0800000000000001	1	0	0	0	1
41	66	8.1400000000000006	1	0	0	0	1
49	70	8.1400000000000006	1	0	0	0	1
69	42	2.0800000000000001	1	0	0	0	1
73	54	37.979999999999997	1	0	0	0	1
74	57	51.280000000000001	1	0	0	0	1
[NumHoles] = 0
[NumBlockLabels] = 0
