[Format]      =  4.0
[Frequency]   =  0
[Precision]   =  1e-008
[MinAngle]    =  30
[DoSmartMesh] =  1
[Depth]       =  18
[LengthUnits] =  millimeters
[ProblemType] =  planar
[Coordinates] =  cartesian
[ACSolver]    =  0
[PrevType]    =  0
[PrevSoln]    =  ""
[Comment]     =  "Add comments here."
[PointProps]   = 0
[BdryProps]   = 6
  <BeginBdry>
    <BdryName> = "a0"
    <BdryType> = 0
    <A_0> = 0
    <A_1> = 0
    <A_2> = 0
    <Phi> = 0
    <c0> = 0
    <c0i> = 0
    <c1> = 0
    <c1i> = 0
    <Mu_ssd> = 0
    <Sigma_ssd> = 0
    <innerangle> = 0
    <outerangle> = 0
  <EndBdry>
  <BeginBdry>
    <BdryName> = "pbca"
    <BdryType> = 6
    <A_0> = 0
    <A_1> = 0
    <A_2> = 0
    <Phi> = 0
    <c0> = 0
    <c0i> = 0
    <c1> = 0
    <c1i> = 0
    <Mu_ssd> = 0
    <Sigma_ssd> = 0
    <innerangle> = -15
    <outerangle> = 26.367149999999999
  <EndBdry>
  <BeginBdry>
    <BdryName> = "pbc1"
    <BdryType> = 4
    <A_0> = 0
    <A_1> = 0
    <A_2> = 0
    <Phi> = 0
    <c0> = 0
    <c0i> = 0
    <c1> = 0
    <c1i> = 0
    <Mu_ssd> = 0
    <Sigma_ssd> = 0
    <innerangle> = 0
    <outerangle> = 0
  <EndBdry>
  <BeginBdry>
    <BdryName> = "pbc2"
    <BdryType> = 4
    <A_0> = 0
    <A_1> = 0
    <A_2> = 0
    <Phi> = 0
    <c0> = 0
    <c0i> = 0
    <c1> = 0
    <c1i> = 0
    <Mu_ssd> = 0
    <Sigma_ssd> = 0
    <innerangle> = 0
    <outerangle> = 0
  <EndBdry>
  <BeginBdry>
    <BdryName> = "pbc3"
    <BdryType> = 4
    <A_0> = 0
    <A_1> = 0
    <A_2> = 0
    <Phi> = 0
    <c0> = 0
    <c0i> = 0
    <c1> = 0
    <c1i> = 0
    <Mu_ssd> = 0
    <Sigma_ssd> = 0
    <innerangle> = 0
    <outerangle> = 0
  <EndBdry>
  <BeginBdry>
    <BdryName> = "pbc4"
    <BdryType> = 4
    <A_0> = 0
    <A_1> = 0
    <A_2> = 0
    <Phi> = 0
    <c0> = 0
    <c0i> = 0
    <c1> = 0
    <c1i> = 0
    <Mu_ssd> = 0
    <Sigma_ssd> = 0
    <innerangle> = 0
    <outerangle> = 0
  <EndBdry>
[BlockProps]  = 5
  <BeginBlock>
    <BlockName> = "air"
    <Mu_x> = 1
    <Mu_y> = 1
    <H_c> = 0
    <H_cAngle> = 0
    <J_re> = 0
    <J_im> = 0
    <Sigma> = 0
    <d_lam> = 0
    <Phi_h> = 0
    <Phi_hx> = 0
    <Phi_hy> = 0
    <LamType> = 0
    <LamFill> = 1
    <NStrands> = 0
    <WireD> = 0
    <BHPoints> = 0
  <EndBlock>
  <BeginBlock>
    <BlockName> = "steel"
    <Mu_x> = 1
    <Mu_y> = 1
    <H_c> = 0
    <H_cAngle> = 0
    <J_re> = 0
    <J_im> = 0
    <Sigma> = 5.7999999999999998
    <d_lam> = 0.5
    <Phi_h> = 0
    <Phi_hx> = 0
    <Phi_hy> = 0
    <LamType> = 0
    <LamFill> = 0.97999999999999998
    <NStrands> = 0
    <WireD> = 0
    <BHPoints> = 60
      0	0
      0.67085625500000001	200
      0.79152467800000004	300
      0.87141455499999998	400
      0.93123153700000005	500
      0.97906368300000002	600
      1.0189211	700
      1.0530867960000001	800
      1.0829850649999999	900
      1.109564545	1000
      1.1269532980000001	1100
      1.2036539900000001	1615.7894739999999
      1.2504264469999999	2131.578947
      1.2841759669999999	2647.3684210000001
      1.31059707	3163.1578949999998
      1.332311427	3678.9473680000001
      1.3507451150000001	4194.7368420000003
      1.366760558	4710.5263160000004
      1.3809192809999999	5226.3157890000002
      1.393607415	5742.1052630000004
      1.405101905	6257.8947369999996
      1.41560815	6773.6842109999998
      1.4252827100000001	7289.4736839999996
      1.4342476529999999	7805.2631579999997
      1.442600004	8321.0526320000008
      1.4504181519999999	8836.8421049999997
      1.4577663439999999	9352.6315790000008
      1.464697889	9868.421053
      1.47125751	10384.21053
      1.4765504380000001	11000
      1.477483095	10900
      1.488764478	12344.827590000001
      1.4989391080000001	13689.65517
      1.5076589229999999	15034.482760000001
      1.515288382	16379.31034
      1.52207011	17724.137930000001
      1.528173797	19068.965520000002
      1.533722786	20413.793099999999
      1.538809552	21758.62069
      1.5435052140000001	23103.448280000001
      1.547865643	24448.275860000002
      1.551935531	25793.103449999999
      1.5557511909999999	27137.93103
      1.5593425240000001	28482.758620000001
      1.56273445	29827.586210000001
      1.5659479510000001	31172.413789999999
      1.5690008660000001	32517.241379999999
      1.571908482	33862.06897
      1.5746840040000001	35206.896549999998
      1.5773389149999999	36551.724139999998
      1.5798832620000001	37896.551720000003
      1.5823258870000001	39241.379309999997
      1.5846746119999999	40586.206899999997
      1.5869363889999999	41931.034480000002
      1.5891174269999999	43275.862070000003
      1.5912232930000001	44620.689659999996
      1.593258995	45965.517240000001
      1.595229059	47310.344830000002
      1.597137587	48655.172409999999
      1.598988305	50000
  <EndBlock>
  <BeginBlock>
    <BlockName> = "FeSi65"
    <Mu_x> = 1
    <Mu_y> = 1
    <H_c> = 0
    <H_cAngle> = 0
    <J_re> = 0
    <J_im> = 0
    <Sigma> = 5.7999999999999998
    <d_lam> = 0
    <Phi_h> = 0
    <Phi_hx> = 0
    <Phi_hy> = 0
    <LamType> = 0
    <LamFill> = 1
    <NStrands> = 0
    <WireD> = 0
    <BHPoints> = 58
      0	0
      0.35829462699999998	235.7142857
      0.47802809200000002	371.42857140000001
      0.56314887199999997	507.14285710000001
      0.62924455599999995	642.85714289999999
      0.68328513800000001	778.57142859999999
      0.72899703699999996	914.2857143
      0.76860793599999999	1050
      0.80355628199999996	1185.7142859999999
      0.83482503100000005	1321.4285709999999
      0.86311572800000003	1457.142857
      0.88894663500000004	1592.857143
      0.91271148700000004	1728.5714290000001
      0.93471644799999998	1864.2857140000001
      0.95520429900000003	2000
      1.030452669	2571.4285709999999
      1.086202243	3142.8571430000002
      1.1306884020000001	3714.2857140000001
      1.167706237	4285.7142860000004
      1.199406524	4857.1428569999998
      1.2271268360000001	5428.5714289999996
      1.251755988	6000
      1.273914738	6571.4285710000004
      1.294053804	7142.8571430000002
      1.3125108000000001	7714.2857139999996
      1.3295451760000001	8285.7142860000004
      1.3453606300000001	8857.1428570000007
      1.3601200170000001	9428.5742900000005
      1.3739555889999999	10000
      1.4022484930000001	11379.31034
      1.4252685469999999	12758.62069
      1.443943891	14137.93103
      1.4596570209999999	15517.241379999999
      1.473220258	16896.551719999999
      1.485151723	18275.862069999999
      1.495802219	19655.172409999999
      1.5054203239999999	21034.482759999999
      1.5141886179999999	22413.793099999999
      1.522245155	23793.103449999999
      1.529696862	25172.413789999999
      1.5366282449999999	26551.724139999998
      1.54310725	27931.034479999998
      1.549189325	29310.344829999998
      1.5549203110000001	30689.655170000002
      1.5603385380000001	32068.965520000002
      1.5654763840000001	33448.275860000002
      1.570361444	34827.586210000001
      1.5750174320000001	6206.8965500000004
      1.5794648710000001	37586.206899999997
      1.5837216460000001	38965.517240000001
      1.5878034350000001	40344.827590000001
      1.5917240589999999	41724.137929999997
      1.595495761	43103.448279999997
      1.599129443	44482.758620000001
      1.6026348500000001	45862.06897
      1.6060207310000001	47241.379309999997
      1.609294969	48620.689659999996
      1.6124646920000001	50000
  <EndBlock>
  <BeginBlock>
    <BlockName> = "ml"
    <Mu_x> = 1
    <Mu_y> = 1
    <H_c> = 200106
    <H_cAngle> = 0
    <J_re> = 0
    <J_im> = 0
    <Sigma> = 0
    <d_lam> = 0
    <Phi_h> = 0
    <Phi_hx> = 0
    <Phi_hy> = 0
    <LamType> = 0
    <LamFill> = 1
    <NStrands> = 0
    <WireD> = 0
    <BHPoints> = 10
      0	0
      0.066000000000000003	1160
      0.13139000000000001	2323.6599999999999
      0.14399999999999999	3490
      0.15328	6000
      0.16239999999999999	11630
      0.17152999999999999	18613.200000000001
      0.21168000000000001	51192.199999999997
      0.27372000000000002	102376
      0.38685999999999998	200106
  <EndBlock>
  <BeginBlock>
    <BlockName> = "mr"
    <Mu_x> = 1
    <Mu_y> = 1
    <H_c> = 200106
    <H_cAngle> = 0
    <J_re> = 0
    <J_im> = 0
    <Sigma> = 0
    <d_lam> = 0
    <Phi_h> = 0
    <Phi_hx> = 0
    <Phi_hy> = 0
    <LamType> = 0
    <LamFill> = 1
    <NStrands> = 0
    <WireD> = 0
    <BHPoints> = 10
      0	0
      0.066000000000000003	1160
      0.13139000000000001	2323.6599999999999
      0.14399999999999999	3490
      0.15328	6000
      0.16239999999999999	11630
      0.17152999999999999	18613.200000000001
      0.21168000000000001	51192.199999999997
      0.27372000000000002	102376
      0.38685999999999998	200106
  <EndBlock>
[CircuitProps]  = 0
[NumPoints] = 88
0	22.5	0	1
0	43.25	0	1
22.5	0	0	1
43.25	0	0	1
5.3875970000000004	21.845452999999999	0	1
5.5311120000000003	22.381059	0	1
3.5392379999999992	24.954274000000002	0	1
3.726719999999998	36.820067000000002	0	1
15.588523	16.224919	0	1
15.980613	16.617008999999999	0	1
15.542206999999999	19.841415999999999	0	1
21.637467999999998	30.023754	0	1
21.612515999999999	6.256929999999997	0	1
22.148122000000001	6.400445999999997	0	1
23.380654	9.4120670000000004	0	1
33.750473	15.182600000000001	0	1
6.256929999999997	21.612515999999999	0	1
6.400445999999997	22.148122000000001	0	1
9.4120670000000004	23.380654	0	1
15.182600000000001	33.750473	0	1
16.224919	15.588523	0	1
16.617008999999999	15.980613	0	1
19.841415999999999	15.542206999999999	0	1
30.023754	21.637467999999998	0	1
21.845452999999999	5.3875970000000004	0	1
22.381059	5.5311120000000003	0	1
24.954274000000002	3.5392379999999992	0	1
36.820067000000002	3.726719999999998	0	1
6.475652453950536	24.167464012338922	0	1
9.5784164450395703	35.74713530974455	0	1
17.6918115	17.6918115	0	1
26.168719864704961	26.168719864704961	0	1
24.167463999999999	6.475652499999998	0	1
35.747135297405627	9.5784164910890368	0	1
4.8921068313657807	19.887123360966225	0	3
10.600019890829309	17.523412333807705	0	3
5.4799208328077373	21.306582969622557	0	3
11.187833892271266	18.942871942464055	0	3
7.0719695640176763	18.443241772034359	0	3
5.1254561775408281	19.24931502066902	0	3
3.9486718609256197	19.736634116634367	0	3
4.6285479289091986	21.659145921231723	0	3
12.0427188374194	18.588854255737697	0	3
0.14994444138114282	18.072690936345449	0	3
0.14990604491182014	14.841935639083573	0	3
8.0407036890067207	18.041978959130272	0	3
9.9870724448086374	17.235567627713042	0	3
11.163774789445476	16.748041395090471	0	3
12.671813645909916	12.883946143879079	0	3
10.387858837554127	10.59999072417984	0	3
17.521562291288081	10.603077840031249	0	3
19.886269323105267	4.8955785276553421	0	3
18.940918874759056	11.191139627303304	0	3
21.305625906576253	5.4836403149273956	0	3
19.248418567138529	5.1288189835665747	0	3
18.443318140431984	7.0720251507487717	0	3
18.04197884954408	8.0407035023379869	0	3
17.235567190885561	9.9870726503560601	0	3
16.748041135137477	11.163774609175167	0	3
19.737160566663924	3.94918408991518	0	3
21.659718294342472	4.6287856700490932	0	3
18.588281449402665	12.042481682199	0	3
18.072691468680542	0.14994444452448086	0	3
14.841936723879908	0.14995276284913794	0	3
12.883945706487916	12.671813968582782	0	3
10.599990898132129	10.387858548883555	0	3
8.8817841970012523e-016	22.300000000000008	0	3
2.6645352591003757e-015	18.57065098132939	0	3
2.2204460492503131e-016	6.0000000000000036	0	3
6.0000000000000027	-2.2204460492503131e-016	0	3
18.57065098132939	-1.7763568394002505e-015	0	3
22.300000000000011	0	0	3
10.284268461575021	19.317049390625165	0	3
20.930872723057544	6.3869660582446137	0	3
9.696454460133074	17.897589781968829	0	3
19.511516139586561	5.7989042709725558	0	3
22.399999999999999	0	0	0
0	22.399999999999999	0	0
11.986889566688751	18.447614723656827	0	3
13.131433793554937	13.131433202816392	0	3
4.2426406871192865	4.2426406871192892	0	3
3.7687934256154181	19.560230610285597	0	3
4.5684230107276855	21.52044445466931	0	3
11.166232036074828	16.496110988792584	0	3
21.520444454669335	4.5684233212487868	0	3
18.447614943228395	11.986889347117168	0	3
19.560230610285597	3.7687937361365069	0	3
16.496111208364134	11.166231816503256	0	3
[NumSegments] = 63
0	1	-1	6	0	1
2	3	-1	6	0	1
4	5	-1	0	0	1
5	6	-1	0	0	1
6	7	-1	0	0	1
8	9	-1	0	0	1
9	10	-1	0	0	1
10	11	-1	0	0	1
12	13	-1	0	0	1
13	14	-1	0	0	1
14	15	-1	0	0	1
16	17	-1	0	0	1
17	18	-1	0	0	1
18	19	-1	0	0	1
20	21	-1	0	0	1
21	22	-1	0	0	1
22	23	-1	0	0	1
24	25	-1	0	0	1
25	26	-1	0	0	1
26	27	-1	0	0	1
6	28	-1	0	0	1
28	18	-1	0	0	1
29	28	-1	0	0	1
10	30	-1	0	0	1
30	22	-1	0	0	1
30	31	-1	0	0	1
14	32	-1	0	0	1
32	26	-1	0	0	1
32	33	-1	0	0	1
34	74	-1	0	0	2
34	36	-1	0	0	2
35	37	-1	0	0	2
38	39	-1	0	0	2
39	40	-1	0	0	2
36	41	-1	0	0	2
37	42	-1	0	0	2
43	44	-1	0	0	2
45	46	-1	0	0	2
46	47	-1	0	0	2
48	49	-1	0	0	2
50	75	-1	0	0	2
50	52	-1	0	0	2
51	53	-1	0	0	2
54	55	-1	0	0	2
56	57	-1	0	0	2
57	58	-1	0	0	2
54	59	-1	0	0	2
53	60	-1	0	0	2
52	61	-1	0	0	2
62	63	-1	0	0	2
64	65	-1	0	0	2
66	67	-1	0	0	1
67	68	-1	0	0	3
69	70	-1	0	0	3
70	71	-1	4	0	1
36	72	-1	0	0	1
52	73	-1	0	0	1
74	35	-1	0	0	2
72	74	-1	0	0	1
75	51	-1	0	0	2
73	75	-1	0	0	1
0	77	-1	5	0	0
2	76	-1	5	0	0
[NumArcSegments] = 35
71	66	90	1	2	0	0	0.26000000000000001
76	77	90	1	2	0	0	0.26000000000000001
3	1	90	5	1	0	0	0.87
19	29	9.2200000000000131	5	0	0	1	5
29	7	9.2199999999999989	5	0	0	1	5
23	31	9.2199999999999989	5	1	0	0	5
31	11	9.2199999999999989	5	0	0	1	5
27	33	9.2200000738041865	5	0	0	1	5
33	15	9.2199999261958094	5	0	0	1	5
4	0	13.860000000000014	5	0	0	1	5
8	16	27.699999999999996	5	0	0	1	5
12	20	27.699999999999996	5	0	0	1	5
2	24	13.84	5	0	0	1	5
78	79	65.699999999999989	5	0	0	2	5
80	68	44.999999999999993	5	1	0	0	2.3999999999999999
43	81	41.573169000000121	5	0	0	2	5
44	38	53.007767000000001	5	0	0	2	5
81	40	2.6188489999999547	5	0	0	2	5
82	41	1.728053999999986	5	0	0	2	5
42	78	1.7360630000000015	5	0	0	2	5
83	48	41.572594000000123	5	0	0	2	5
45	49	53.007153000000017	5	0	0	2	5
47	83	2.6188549999999111	5	0	0	2	5
84	70	65.700001774712504	5	0	0	2	5
79	85	65.699999999999989	5	0	0	2	5
86	62	41.573168999999893	5	0	0	2	5
55	63	53.008076000000017	5	0	0	2	5
64	87	41.572593999999896	5	0	0	2	5
65	56	53.007152999999988	5	0	0	2	5
87	58	2.6188549999999964	5	0	0	2	5
59	86	2.6264790000000175	5	0	0	2	5
60	84	1.7352329999999938	5	0	0	2	5
85	61	1.7289729999999963	5	0	0	2	5
67	82	65.699998225287402	5	0	0	2	5
69	80	44.999999999999993	5	1	0	0	2.3999999999999999
[NumHoles] = 0
[NumBlockLabels] = 16
17	17	1	-1	0	0	0	1	0
28	28	2	-1	0	0	0	1	0
17.668364999999998	2.7460545000000049	1	-1	0	0	3	1	0
14.435174500000009	10.551667000000007	1	-1	0	0	3	1	0
10.551666500000005	14.435174500000006	1	-1	0	0	3	1	0
2.7460544999999996	17.66836450000001	1	-1	0	0	3	1	0
15.591705000000005	15.591705000000003	1	-1	0	0	3	1	0
4.9497470000000021	4.9497470000000003	3	-1	0	0	3	1	0
7.0444815000000016	19.893003000000014	4	-1	0	70.5	0	1	0
19.047677999999998	9.085276000000011	5	-1	0	205.5	3	1	0
6.2000000000000002	31.600000000000001	1	-1	0	0	0	1	0
11.300000000000001	30.5	1	-1	0	0	0	1	0
20.5	23.899999999999999	1	-1	0	0	0	1	0
23.300000000000001	20.399999999999999	1	-1	0	0	0	1	0
29.5	10.300000000000001	1	-1	0	0	0	1	0
29.899999999999999	5.5999999999999996	1	-1	0	0	0	1	0
