[Format]      =  4.0
[Frequency]   =  0
[Precision]   =  1e-008
[MinAngle]    =  30
[DoSmartMesh] =  1
[Depth]       =  18
[LengthUnits] =  millimeters
[ProblemType] =  planar
[Coordinates] =  cartesian
[ACSolver]    =  0
[PrevType]    =  0
[PrevSoln]    =  ""
[Comment]     =  "Add comments here."
[PointProps]   = 0
[BdryProps]   = 6
  <BeginBdry>
    <BdryName> = "a0"
    <BdryType> = 0
    <A_0> = 0
    <A_1> = 0
    <A_2> = 0
    <Phi> = 0
    <c0> = 0
    <c0i> = 0
    <c1> = 0
    <c1i> = 0
    <Mu_ssd> = 0
    <Sigma_ssd> = 0
    <innerangle> = 0
    <outerangle> = 0
  <EndBdry>
  <BeginBdry>
    <BdryName> = "pbca"
    <BdryType> = 6
    <A_0> = 0
    <A_1> = 0
    <A_2> = 0
    <Phi> = 0
    <c0> = 0
    <c0i> = 0
    <c1> = 0
    <c1i> = 0
    <Mu_ssd> = 0
    <Sigma_ssd> = 0
    <innerangle> = -15
    <outerangle> = 26.367149999999999
  <EndBdry>
  <BeginBdry>
    <BdryName> = "pbc1"
    <BdryType> = 4
    <A_0> = 0
    <A_1> = 0
    <A_2> = 0
    <Phi> = 0
    <c0> = 0
    <c0i> = 0
    <c1> = 0
    <c1i> = 0
    <Mu_ssd> = 0
    <Sigma_ssd> = 0
    <innerangle> = 0
    <outerangle> = 0
  <EndBdry>
  <BeginBdry>
    <BdryName> = "pbc2"
    <BdryType> = 4
    <A_0> = 0
    <A_1> = 0
    <A_2> = 0
    <Phi> = 0
    <c0> = 0
    <c0i> = 0
    <c1> = 0
    <c1i> = 0
    <Mu_ssd> = 0
    <Sigma_ssd> = 0
    <innerangle> = 0
    <outerangle> = 0
  <EndBdry>
  <BeginBdry>
    <BdryName> = "pbc3"
    <BdryType> = 4
    <A_0> = 0
    <A_1> = 0
    <A_2> = 0
    <Phi> = 0
    <c0> = 0
    <c0i> = 0
    <c1> = 0
    <c1i> = 0
    <Mu_ssd> = 0
    <Sigma_ssd> = 0
    <innerangle> = 0
    <outerangle> = 0
  <EndBdry>
  <BeginBdry>
    <BdryName> = "pbc4"
    <BdryType> = 4
    <A_0> = 0
    <A_1> = 0
    <A_2> = 0
    <Phi> = 0
    <c0> = 0
    <c0i> = 0
    <c1> = 0
    <c1i> = 0
    <Mu_ssd> = 0
    <Sigma_ssd> = 0
    <innerangle> = 0
    <outerangle> = 0
  <EndBdry>
[BlockProps]  = 5
  <BeginBlock>
    <BlockName> = "air"
    <Mu_x> = 1
    <Mu_y> = 1
    <H_c> = 0
    <H_cAngle> = 0
    <J_re> = 0
    <J_im> = 0
    <Sigma> = 0
    <d_lam> = 0
    <Phi_h> = 0
    <Phi_hx> = 0
    <Phi_hy> = 0
    <LamType> = 0
    <LamFill> = 1
    <NStrands> = 0
    <WireD> = 0
    <BHPoints> = 0
  <EndBlock>
  <BeginBlock>
    <BlockName> = "steel"
    <Mu_x> = 1
    <Mu_y> = 1
    <H_c> = 0
    <H_cAngle> = 0
    <J_re> = 0
    <J_im> = 0
    <Sigma> = 5.7999999999999998
    <d_lam> = 0.5
    <Phi_h> = 0
    <Phi_hx> = 0
    <Phi_hy> = 0
    <LamType> = 0
    <LamFill> = 0.97999999999999998
    <NStrands> = 0
    <WireD> = 0
    <BHPoints> = 60
      0	0
      0.67085625500000001	200
      0.79152467800000004	300
      0.87141455499999998	400
      0.93123153700000005	500
      0.97906368300000002	600
      1.0189211	700
      1.0530867960000001	800
      1.0829850649999999	900
      1.109564545	1000
      1.1269532980000001	1100
      1.2036539900000001	1615.7894739999999
      1.2504264469999999	2131.578947
      1.2841759669999999	2647.3684210000001
      1.31059707	3163.1578949999998
      1.332311427	3678.9473680000001
      1.3507451150000001	4194.7368420000003
      1.366760558	4710.5263160000004
      1.3809192809999999	5226.3157890000002
      1.393607415	5742.1052630000004
      1.405101905	6257.8947369999996
      1.41560815	6773.6842109999998
      1.4252827100000001	7289.4736839999996
      1.4342476529999999	7805.2631579999997
      1.442600004	8321.0526320000008
      1.4504181519999999	8836.8421049999997
      1.4577663439999999	9352.6315790000008
      1.464697889	9868.421053
      1.47125751	10384.21053
      1.4765504380000001	11000
      1.477483095	10900
      1.488764478	12344.827590000001
      1.4989391080000001	13689.65517
      1.5076589229999999	15034.482760000001
      1.515288382	16379.31034
      1.52207011	17724.137930000001
      1.528173797	19068.965520000002
      1.533722786	20413.793099999999
      1.538809552	21758.62069
      1.5435052140000001	23103.448280000001
      1.547865643	24448.275860000002
      1.551935531	25793.103449999999
      1.5557511909999999	27137.93103
      1.5593425240000001	28482.758620000001
      1.56273445	29827.586210000001
      1.5659479510000001	31172.413789999999
      1.5690008660000001	32517.241379999999
      1.571908482	33862.06897
      1.5746840040000001	35206.896549999998
      1.5773389149999999	36551.724139999998
      1.5798832620000001	37896.551720000003
      1.5823258870000001	39241.379309999997
      1.5846746119999999	40586.206899999997
      1.5869363889999999	41931.034480000002
      1.5891174269999999	43275.862070000003
      1.5912232930000001	44620.689659999996
      1.593258995	45965.517240000001
      1.595229059	47310.344830000002
      1.597137587	48655.172409999999
      1.598988305	50000
  <EndBlock>
  <BeginBlock>
    <BlockName> = "FeSi65"
    <Mu_x> = 1
    <Mu_y> = 1
    <H_c> = 0
    <H_cAngle> = 0
    <J_re> = 0
    <J_im> = 0
    <Sigma> = 5.7999999999999998
    <d_lam> = 0
    <Phi_h> = 0
    <Phi_hx> = 0
    <Phi_hy> = 0
    <LamType> = 0
    <LamFill> = 1
    <NStrands> = 0
    <WireD> = 0
    <BHPoints> = 58
      0	0
      0.35829462699999998	235.7142857
      0.47802809200000002	371.42857140000001
      0.56314887199999997	507.14285710000001
      0.62924455599999995	642.85714289999999
      0.68328513800000001	778.57142859999999
      0.72899703699999996	914.2857143
      0.76860793599999999	1050
      0.80355628199999996	1185.7142859999999
      0.83482503100000005	1321.4285709999999
      0.86311572800000003	1457.142857
      0.88894663500000004	1592.857143
      0.91271148700000004	1728.5714290000001
      0.93471644799999998	1864.2857140000001
      0.95520429900000003	2000
      1.030452669	2571.4285709999999
      1.086202243	3142.8571430000002
      1.1306884020000001	3714.2857140000001
      1.167706237	4285.7142860000004
      1.199406524	4857.1428569999998
      1.2271268360000001	5428.5714289999996
      1.251755988	6000
      1.273914738	6571.4285710000004
      1.294053804	7142.8571430000002
      1.3125108000000001	7714.2857139999996
      1.3295451760000001	8285.7142860000004
      1.3453606300000001	8857.1428570000007
      1.3601200170000001	9428.5742900000005
      1.3739555889999999	10000
      1.4022484930000001	11379.31034
      1.4252685469999999	12758.62069
      1.443943891	14137.93103
      1.4596570209999999	15517.241379999999
      1.473220258	16896.551719999999
      1.485151723	18275.862069999999
      1.495802219	19655.172409999999
      1.5054203239999999	21034.482759999999
      1.5141886179999999	22413.793099999999
      1.522245155	23793.103449999999
      1.529696862	25172.413789999999
      1.5366282449999999	26551.724139999998
      1.54310725	27931.034479999998
      1.549189325	29310.344829999998
      1.5549203110000001	30689.655170000002
      1.5603385380000001	32068.965520000002
      1.5654763840000001	33448.275860000002
      1.570361444	34827.586210000001
      1.5750174320000001	6206.8965500000004
      1.5794648710000001	37586.206899999997
      1.5837216460000001	38965.517240000001
      1.5878034350000001	40344.827590000001
      1.5917240589999999	41724.137929999997
      1.595495761	43103.448279999997
      1.599129443	44482.758620000001
      1.6026348500000001	45862.06897
      1.6060207310000001	47241.379309999997
      1.609294969	48620.689659999996
      1.6124646920000001	50000
  <EndBlock>
  <BeginBlock>
    <BlockName> = "ml"
    <Mu_x> = 1
    <Mu_y> = 1
    <H_c> = 220106
    <H_cAngle> = 0
    <J_re> = 0
    <J_im> = 0
    <Sigma> = 0
    <d_lam> = 0
    <Phi_h> = 0
    <Phi_hx> = 0
    <Phi_hy> = 0
    <LamType> = 0
    <LamFill> = 1
    <NStrands> = 0
    <WireD> = 0
    <BHPoints> = 10
      0	0
      0.066000000000000003	1160
      0.13139000000000001	2323.6599999999999
      0.14399999999999999	3490
      0.15328	6000
      0.16239999999999999	11630
      0.17152999999999999	18613.200000000001
      0.21168000000000001	51192.199999999997
      0.27372000000000002	102376
      0.38685999999999998	200106
  <EndBlock>
  <BeginBlock>
    <BlockName> = "mr"
    <Mu_x> = 1
    <Mu_y> = 1
    <H_c> = 220106
    <H_cAngle> = 0
    <J_re> = 0
    <J_im> = 0
    <Sigma> = 0
    <d_lam> = 0
    <Phi_h> = 0
    <Phi_hx> = 0
    <Phi_hy> = 0
    <LamType> = 0
    <LamFill> = 1
    <NStrands> = 0
    <WireD> = 0
    <BHPoints> = 10
      0	0
      0.066000000000000003	1160
      0.13139000000000001	2323.6599999999999
      0.14399999999999999	3490
      0.15328	6000
      0.16239999999999999	11630
      0.17152999999999999	18613.200000000001
      0.21168000000000001	51192.199999999997
      0.27372000000000002	102376
      0.38685999999999998	200106
  <EndBlock>
[CircuitProps]  = 0
[NumPoints] = 333
0	22.5	0	1
0	43.25	0	1
22.5	0	0	1
43.25	0	0	1
5.3875970000000004	21.845452999999999	0	1
5.5311120000000003	22.381059	0	1
3.5392379999999992	24.954274000000002	0	1
3.726719999999998	36.820067000000002	0	1
15.588523	16.224919	0	1
15.980613	16.617008999999999	0	1
15.542206999999999	19.841415999999999	0	1
21.637467999999998	30.023754	0	1
21.612515999999999	6.256929999999997	0	1
22.148122000000001	6.400445999999997	0	1
23.380654	9.4120670000000004	0	1
33.750473	15.182600000000001	0	1
6.256929999999997	21.612515999999999	0	1
6.400445999999997	22.148122000000001	0	1
9.4120670000000004	23.380654	0	1
15.182600000000001	33.750473	0	1
16.224919	15.588523	0	1
16.617008999999999	15.980613	0	1
19.841415999999999	15.542206999999999	0	1
30.023754	21.637467999999998	0	1
21.845452999999999	5.3875970000000004	0	1
22.381059	5.5311120000000003	0	1
24.954274000000002	3.5392379999999992	0	1
36.820067000000002	3.726719999999998	0	1
9.5784164450395703	35.74713530974455	0	1
26.168719864704961	26.168719864704961	0	1
35.747135297405627	9.5784164910890368	0	1
4.9686435178388004	20.071899267468492	0	9
10.676556577302327	17.708188240309966	0	9
5.5564575192807517	21.491358876124817	0	9
11.264370578744286	19.127647848966316	0	9
7.1485062504906978	18.628017678536626	0	9
5.201992864013846	19.434090927171283	0	9
4.0252085473986412	19.921410023136644	0	9
4.7050846153822121	21.843921827733986	0	9
12.119255523892418	18.773630162239954	0	9
0.22648112785415719	18.257466842847712	0	9
0.22644273138483761	15.026711545585835	0	9
8.1172403754797386	18.22675486563254	0	9
10.063609131281655	17.420343534215299	0	9
11.240311475918491	16.932817301592735	0	9
12.748350332382934	13.068722050381345	0	9
10.464395524027145	10.7847666306821	0	9
17.598098977761097	10.787853746533518	0	9
19.962806009578284	5.0803544341575995	0	9
19.017455561232076	11.375915533805564	0	9
21.38216259304928	5.6684162214296503	0	9
19.324955253611556	5.3135948900688303	0	9
18.519854826905007	7.2568010572510335	0	9
18.118515536017103	8.2254794088402434	0	9
17.312103877358588	10.171848556858318	0	9
16.824577821610497	11.348550515677431	0	9
19.81369725313694	4.1339599964174418	0	9
21.736254980815495	4.813561576551356	0	9
18.664818135875677	12.227257588701269	0	9
18.149228155153558	0.33472035102673914	0	9
14.918473410352926	0.33472866935139578	0	9
12.960482392960937	12.856589875085046	0	9
10.676527584605148	10.572634455385813	0	9
0.076536686473019699	18.755426887831657	0	9
0.076536686473017035	6.1847759065022592	0	9
6.0765366864730215	0.18477590650225872	0	9
18.647187667802406	0.18477590650226183	0	9
9.7729911466060919	18.082365688471093	0	9
19.588052826059581	5.9836801774748176	0	9
12.063426253161769	18.632390630159083	0	9
13.20797048002796	13.316209109318658	0	9
4.3191773735923054	4.4274165936215466	0	9
3.8453301120884369	19.745006516787868	0	9
4.6449596972007017	21.70522036117157	0	9
11.242768722547847	16.680886895294847	0	9
21.596981141142361	4.7531992277510486	0	9
18.524151629701414	12.171665253619441	0	9
19.636767296758624	3.953569642638767	0	9
16.572647894837154	11.351007723005523	0	9
-21.845452999999999	5.3875970000000022	0	1
-22.381059	5.531112000000002	0	1
-24.954274000000002	3.5392380000000006	0	1
-36.820067000000002	3.7267200000000003	0	1
-16.224919	15.588523000000002	0	1
-16.617008999999999	15.980613000000002	0	1
-19.841415999999999	15.542207000000001	0	1
-30.023754	21.637468000000002	0	1
-6.2569299999999961	21.612515999999999	0	1
-6.4004459999999952	22.148122000000001	0	1
-9.4120669999999986	23.380654	0	1
-15.182599999999999	33.750473	0	1
-21.612515999999999	6.2569299999999979	0	1
-22.148122000000001	6.4004459999999987	0	1
-23.380654	9.4120670000000022	0	1
-33.750473	15.182600000000003	0	1
-15.588522999999999	16.224919	0	1
-15.980612999999998	16.617008999999999	0	1
-15.542206999999998	19.841415999999999	0	1
-21.637467999999995	30.023754	0	1
-5.3875969999999986	21.845452999999999	0	1
-5.5311119999999985	22.381059	0	1
-3.5392379999999979	24.954274000000002	0	1
-3.7267199999999958	36.820067000000002	0	1
-19.810586674493216	5.076882737868039	0	9
-17.821053095495817	9.8812303666353323	0	9
-21.230046283149541	5.664696739309993	0	9
-17.446875647334689	10.784795797331565	0	9
-18.866335255991039	11.372609798773526	0	9
-18.366705085561346	7.2567454705199381	0	9
-19.172778334196003	5.3102320840430854	0	9
-19.66009743016135	4.1334477674278798	0	9
-21.582609234758706	4.8133238354114507	0	9
-18.512317569264681	12.227494743921657	0	9
-17.996154249872433	0.33472034788339755	0	9
-14.765398952610562	0.33468195141407708	0	9
-17.965442272657267	8.225479595508979	0	9
-17.159030941240022	10.171848351310894	0	9
-16.671504708617459	11.348550695947736	0	9
-12.807409457406063	12.856589552412171	0	9
-10.523454037706822	10.572634744056383	0	9
-10.52654115355824	17.706338197790338	0	9
-5.7223675844995379	19.696292046088818	0	9
-11.114602940830292	19.125694781261316	0	9
-4.819041841182325	20.071045229607527	0	9
-5.4071036284543768	21.490401813078513	0	9
-5.0522822970935559	19.433194473640793	0	9
-6.9954884642757582	18.628094046934244	0	9
-7.9641668158649708	18.226754756046343	0	9
-9.9105359638830421	17.420343097387818	0	9
-11.087237922702156	16.932817041639737	0	9
-3.8726474034421647	19.921936473166184	0	9
-4.5522489835760815	21.844494200844732	0	9
-11.96594499572598	18.773057355904921	0	9
-0.073407758051461158	18.257467375182802	0	9
-0.073416076376120465	15.026712630382162	0	9
-12.595277282109766	13.068721612990174	0	9
-10.311321862410539	10.784766804634387	0	9
-43.25	2.6482987031561511e-015	0	1
-35.74713530974455	9.5784164450395721	0	1
-26.168719864704961	26.168719864704961	0	1
-9.578416491089035	35.747135297405627	0	1
-22.5	1.3777276490407724e-015	0	1
-18.371078037183807	12.171665473191005	0	9
-13.05489651634338	13.316209700057199	0	9
-4.1661040006462731	4.4274165936215457	0	9
-5.9234633135269856	0.18477590650225784	0	9
-19.483693923812584	3.9535693321176755	0	9
-21.443907768196294	4.753198917229942	0	9
-16.419574302319571	11.351007942577084	0	9
-4.4918866347757689	21.705220361171598	0	9
-11.910352660644163	18.632390849730655	0	9
-3.6922570496634881	19.745006516787857	0	9
-11.089695130030243	16.68088711486639	0	9
-18.494114294856374	0.18477590650225473	0	9
-5.3875970000000031	-21.845452999999999	0	1
-5.5311120000000029	-22.381059	0	1
-3.5392380000000023	-24.954274000000002	0	1
-3.7267200000000025	-36.820067000000002	0	1
-15.588523000000002	-16.224918999999996	0	1
-15.980613000000002	-16.617008999999996	0	1
-15.542207000000001	-19.841415999999995	0	1
-21.637468000000002	-30.023753999999997	0	1
-21.612515999999999	-6.2569299999999943	0	1
-22.148122000000001	-6.4004459999999943	0	1
-23.380654	-9.4120669999999969	0	1
-33.750473	-15.182599999999997	0	1
-6.2569299999999997	-21.612515999999999	0	1
-6.4004459999999996	-22.148122000000001	0	1
-9.412067000000004	-23.380654	0	1
-15.182600000000004	-33.750473	0	1
-16.224919000000003	-15.588522999999999	0	1
-16.617009000000003	-15.980612999999998	0	1
-19.841416000000002	-15.542206999999998	0	1
-30.023754000000004	-21.637467999999995	0	1
-21.845452999999999	-5.3875969999999977	0	1
-22.381059	-5.5311119999999976	0	1
-24.954274000000002	-3.5392379999999961	0	1
-36.820067000000002	-3.7267199999999936	0	1
-4.8155701448927628	-19.702347454463968	0	9
-9.6199177736600561	-17.712813875466576	0	9
-5.4033841463347185	-21.121807063120301	0	9
-10.523483204356289	-17.338636427305445	0	9
-11.11129720579825	-18.758096035961799	0	9
-6.9954328775446619	-18.258465865532106	0	9
-5.048919491067811	-19.064539114166763	0	9
-3.8721351744526036	-19.55185821013211	0	9
-4.5520112424361807	-21.474370014729466	0	9
-11.966182150946381	-18.404078349235437	0	9
-0.073407754908123124	-17.887915029843192	0	9
-0.073369358438804433	-14.657159732581322	0	9
-7.9641670025337028	-17.857203052628023	0	9
-9.9105357583356195	-17.050791721210782	0	9
-11.087238102972458	-16.563265488588215	0	9
-12.5952769594369	-12.69917023737683	0	9
-10.311322151081111	-10.415214817677587	0	9
-17.445025604815061	-10.418301933528998	0	9
-19.434979453113545	-5.6141283644702993	0	9
-18.86438218828604	-11.006363720801048	0	9
-19.809732636632251	-4.7108026211530873	0	9
-21.229089220103241	-5.2988644084251382	0	9
-19.171881880665516	-4.9440430770643164	0	9
-18.366781453958971	-6.8872492442465152	0	9
-17.965442163071067	-7.8559275958357295	0	9
-17.159030504412542	-9.8022967438538053	0	9
-16.671504448664461	-10.978998702672913	0	9
-19.660623880190908	-3.7644081834129253	0	9
-21.583181607869452	-4.444009763546843	0	9
-18.511744762929641	-11.857705775696742	0	9
-17.996154782207519	0.034831461977774758	0	9
-14.765400037406893	0.034823143653117228	0	9
-12.807409020014898	-12.487038062080522	0	9
-10.523454211659113	-10.203082642381302	0	9
21.845452999999999	-5.3875970000000049	0	1
22.381059	-5.5311120000000047	0	1
24.954274000000002	-3.5392380000000037	0	1
36.820067000000002	-3.7267200000000047	0	1
16.224918999999996	-15.588523000000004	0	1
16.617008999999996	-15.980613000000004	0	1
19.841415999999995	-15.542207000000003	0	1
30.023753999999997	-21.637468000000005	0	1
6.2569299999999934	-21.612515999999999	0	1
6.4004459999999925	-22.148122000000001	0	1
9.4120669999999951	-23.380654	0	1
15.182599999999995	-33.750473	0	1
21.612515999999999	-6.2569300000000005	0	1
22.148122000000001	-6.4004460000000014	0	1
23.380654	-9.4120670000000057	0	1
33.750473	-15.182600000000006	0	1
15.588522999999997	-16.224919000000003	0	1
15.980612999999996	-16.617009000000003	0	1
15.542206999999996	-19.841416000000002	0	1
21.637467999999991	-30.023754000000004	0	1
5.387596999999996	-21.845452999999999	0	1
5.5311119999999958	-22.381059	0	1
3.5392379999999948	-24.954274000000002	0	1
3.7267199999999914	-36.820067000000002	0	1
19.963660047439248	-4.7073309248635242	0	9
17.974126468441852	-9.5116785536308175	0	9
21.383119656095577	-5.2951449263054791	0	9
17.599949020280718	-10.41524398432705	0	9
19.019408628937079	-11.003057985769013	0	9
18.519778458507385	-6.8871936575154233	0	9
19.325851707142043	-4.9406802710385724	0	9
19.813170803107386	-3.7638959544233668	0	9
21.735682607704742	-4.4437720224069412	0	9
18.66539094221072	-11.857942930917147	0	9
18.149227622818469	0.034831465121114569	0	9
14.918472325556595	0.034869861590434148	0	9
18.118515645603303	-7.8559277825044678	0	9
17.312104314186062	-9.8022965383063845	0	9
16.824578081563494	-10.978998882943221	0	9
12.960482830352102	-12.487037739407658	0	9
10.676527410652863	-10.20308293105187	0	9
10.679614526504267	-17.336786384785825	0	9
5.8754409574455737	-19.326740233084305	0	9
11.267676313776324	-18.756142968256796	0	9
4.9721152141283591	-19.701493416603007	0	9
5.5601770014004117	-21.120850000074	0	9
5.20535567003959	-19.063642660636265	0	9
7.1485618372217887	-18.258542233929731	0	9
8.1172401888110031	-17.85720294304183	0	9
10.063609336829073	-17.050791284383305	0	9
11.240311295648183	-16.563265228635224	0	9
4.0257207763881979	-19.552384660161668	0	9
4.7053223565221174	-21.474942387840212	0	9
12.119018368672025	-18.403505542900412	0	9
0.22648113099749789	-17.887915562178279	0	9
0.22648944932215453	-14.657160817377656	0	9
12.748350655055802	-12.699169799985661	0	9
10.464395235356573	-10.41521499162987	0	9
-5.2965974063123023e-015	-43.25	0	1
-9.5784164450395739	-35.74713530974455	0	1
-26.168719864704965	-26.168719864704958	0	1
-35.747135297405627	-9.5784164910890333	0	1
-2.7554552980815448e-015	-22.5	0	1
-11.910352880215733	-18.262838817154567	0	9
-13.054897107081921	-12.946657296314141	0	9
-4.1661040006462695	-4.0578647806170345	0	9
0.076536686473017923	-5.8152240934977453	0	9
-3.6922567391423957	-19.375454703783344	0	9
-4.4918863242546676	-21.335668548167053	0	9
-11.08969534960181	-16.311335082290327	0	9
-21.443907768196318	-4.3836474147465285	0	9
-18.371078256755375	-11.802113440614921	0	9
-19.483693923812584	-3.584017829634254	0	9
-16.419574521891118	-10.981455910000998	0	9
0.076536686473018811	-18.38587507482713	0	9
35.74713530974455	-9.5784164450395757	0	1
26.168719864704958	-26.168719864704965	0	1
9.5784164910890315	-35.747135297405627	0	1
18.52415141012985	-11.8021136601865	0	9
13.207969889289414	-12.946657887052684	0	9
4.319177373592308	-4.05786478061703	0	9
19.636767296758631	-3.584017519113166	0	9
21.596981141142329	-4.3836471042254326	0	9
16.572647675265607	-10.981456129572575	0	9
4.6449600077218012	-21.335668548167082	0	9
12.063426033590193	-18.262839036726135	0	9
3.8453304226095257	-19.375454703783344	0	9
11.242768502976272	-16.311335301861877	0	9
0.076536686473017951	0.18477590650225739	0	9
5.7239336009711312	21.658175918845842	0	9
10.528107170029822	19.668222070547372	0	9
5.1499084524234977	20.272356620078913	0	9
9.9540820214821881	18.282402771780443	0	9
-11.114137423092817	19.362075324655297	0	9
-6.3099638540341214	21.35202917295377	0	9
-10.540112274545187	17.976256025888368	0	9
-5.7359387054864914	19.966209874186838	0	9
-21.396863325870562	5.8321728210003725	0	9
-19.406909477572089	10.636346390059062	0	9
-20.011044027103633	5.2581476724527363	0	9
-18.021090178805164	10.06232124151143	0	9
-19.100762731680021	-11.005898203063575	0	9
-21.090716579978491	-6.2017246340048846	0	9
-17.714943432913095	-10.431873054515949	0	9
-19.704897281211561	-5.6276994854572537	0	9
-5.5708602280250954	-21.288624105841318	0	9
-10.375033797083788	-19.298670257542852	0	9
-4.9968350794774619	-19.902804807074386	0	9
-9.8010086485361523	-17.91285095877592	0	9
11.267210796038849	-18.992523511650784	0	9
6.4630372269801608	-20.98247735994925	0	9
10.693185647491219	-17.606704212883855	0	9
5.8890120784325264	-19.596658061182321	0	9
21.549936698816595	-5.4626210079958586	0	9
19.559982850518129	-10.266794577054553	0	9
20.164117400049665	-4.8885958594482242	0	9
18.174163551751199	-9.6927694285069155	0	9
19.253836104626057	11.375450016068095	0	9
21.243789952924526	6.5712764470093967	0	9
17.868016805859128	10.801424867520453	0	9
19.857970654157594	5.9972512984617667	0	9
[NumSegments] = 200
4	5	-1	0	0	1
5	6	-1	0	0	1
6	7	-1	0	0	1
8	9	-1	0	0	1
9	10	-1	0	0	1
10	11	-1	0	0	1
12	13	-1	0	0	1
13	14	-1	0	0	1
14	15	-1	0	0	1
16	17	-1	0	0	1
17	18	-1	0	0	1
18	19	-1	0	0	1
20	21	-1	0	0	1
21	22	-1	0	0	1
22	23	-1	0	0	1
24	25	-1	0	0	1
25	26	-1	0	0	1
26	27	-1	0	0	1
31	67	-1	0	0	9
31	33	-1	0	0	9
32	34	-1	0	0	9
35	36	-1	0	0	9
36	37	-1	0	0	9
33	38	-1	0	0	9
34	39	-1	0	0	9
40	41	-1	0	0	9
42	43	-1	0	0	9
43	44	-1	0	0	9
45	46	-1	0	0	9
47	68	-1	0	0	9
47	49	-1	0	0	9
48	50	-1	0	0	9
51	52	-1	0	0	9
53	54	-1	0	0	9
54	55	-1	0	0	9
51	56	-1	0	0	9
50	57	-1	0	0	9
49	58	-1	0	0	9
59	60	-1	0	0	9
61	62	-1	0	0	9
67	32	-1	0	0	9
68	48	-1	0	0	9
79	80	-1	0	0	1
80	81	-1	0	0	1
81	82	-1	0	0	1
83	84	-1	0	0	1
84	85	-1	0	0	1
85	86	-1	0	0	1
87	88	-1	0	0	1
88	89	-1	0	0	1
89	90	-1	0	0	1
91	92	-1	0	0	1
92	93	-1	0	0	1
93	94	-1	0	0	1
95	96	-1	0	0	1
96	97	-1	0	0	1
97	98	-1	0	0	1
99	100	-1	0	0	1
100	101	-1	0	0	1
101	102	-1	0	0	1
103	104	-1	0	0	9
103	105	-1	0	0	9
106	107	-1	0	0	9
108	109	-1	0	0	9
109	110	-1	0	0	9
105	111	-1	0	0	9
107	112	-1	0	0	9
113	114	-1	0	0	9
115	116	-1	0	0	9
116	117	-1	0	0	9
118	119	-1	0	0	9
120	121	-1	0	0	9
120	122	-1	0	0	9
123	124	-1	0	0	9
125	126	-1	0	0	9
127	128	-1	0	0	9
128	129	-1	0	0	9
125	130	-1	0	0	9
124	131	-1	0	0	9
122	132	-1	0	0	9
133	134	-1	0	0	9
135	136	-1	0	0	9
104	106	-1	0	0	9
121	123	-1	0	0	9
154	155	-1	0	0	1
155	156	-1	0	0	1
156	157	-1	0	0	1
158	159	-1	0	0	1
159	160	-1	0	0	1
160	161	-1	0	0	1
162	163	-1	0	0	1
163	164	-1	0	0	1
164	165	-1	0	0	1
166	167	-1	0	0	1
167	168	-1	0	0	1
168	169	-1	0	0	1
170	171	-1	0	0	1
171	172	-1	0	0	1
172	173	-1	0	0	1
174	175	-1	0	0	1
175	176	-1	0	0	1
176	177	-1	0	0	1
178	179	-1	0	0	9
178	180	-1	0	0	9
181	182	-1	0	0	9
183	184	-1	0	0	9
184	185	-1	0	0	9
180	186	-1	0	0	9
182	187	-1	0	0	9
188	189	-1	0	0	9
190	191	-1	0	0	9
191	192	-1	0	0	9
193	194	-1	0	0	9
195	196	-1	0	0	9
195	197	-1	0	0	9
198	199	-1	0	0	9
200	201	-1	0	0	9
202	203	-1	0	0	9
203	204	-1	0	0	9
200	205	-1	0	0	9
199	206	-1	0	0	9
197	207	-1	0	0	9
208	209	-1	0	0	9
210	211	-1	0	0	9
179	181	-1	0	0	9
196	198	-1	0	0	9
212	213	-1	0	0	1
213	214	-1	0	0	1
214	215	-1	0	0	1
216	217	-1	0	0	1
217	218	-1	0	0	1
218	219	-1	0	0	1
220	221	-1	0	0	1
221	222	-1	0	0	1
222	223	-1	0	0	1
224	225	-1	0	0	1
225	226	-1	0	0	1
226	227	-1	0	0	1
228	229	-1	0	0	1
229	230	-1	0	0	1
230	231	-1	0	0	1
232	233	-1	0	0	1
233	234	-1	0	0	1
234	235	-1	0	0	1
236	237	-1	0	0	9
236	238	-1	0	0	9
239	240	-1	0	0	9
241	242	-1	0	0	9
242	243	-1	0	0	9
238	244	-1	0	0	9
240	245	-1	0	0	9
246	247	-1	0	0	9
248	249	-1	0	0	9
249	250	-1	0	0	9
251	252	-1	0	0	9
253	254	-1	0	0	9
253	255	-1	0	0	9
256	257	-1	0	0	9
258	259	-1	0	0	9
260	261	-1	0	0	9
261	262	-1	0	0	9
258	263	-1	0	0	9
257	264	-1	0	0	9
255	265	-1	0	0	9
266	267	-1	0	0	9
268	269	-1	0	0	9
237	239	-1	0	0	9
254	256	-1	0	0	9
301	302	-1	0	0	9
301	303	-1	0	0	9
302	304	-1	0	0	9
304	303	-1	0	0	9
305	306	-1	0	0	9
305	307	-1	0	0	9
306	308	-1	0	0	9
308	307	-1	0	0	9
309	310	-1	0	0	9
309	311	-1	0	0	9
310	312	-1	0	0	9
312	311	-1	0	0	9
313	314	-1	0	0	9
313	315	-1	0	0	9
314	316	-1	0	0	9
316	315	-1	0	0	9
317	318	-1	0	0	9
317	319	-1	0	0	9
318	320	-1	0	0	9
320	319	-1	0	0	9
321	322	-1	0	0	9
321	323	-1	0	0	9
322	324	-1	0	0	9
324	323	-1	0	0	9
325	326	-1	0	0	9
325	327	-1	0	0	9
326	328	-1	0	0	9
328	327	-1	0	0	9
329	330	-1	0	0	9
329	331	-1	0	0	9
330	332	-1	0	0	9
332	331	-1	0	0	9
[NumArcSegments] = 132
3	1	90	5	1	0	0	5
19	28	9.2200000000000131	5	0	0	1	5
28	7	9.2199999999999989	5	0	0	1	5
23	29	9.2199999999999989	5	1	0	0	5
29	11	9.2199999999999989	5	0	0	1	5
27	30	9.2200000738041865	5	0	0	1	5
30	15	9.2199999261958094	5	0	0	1	5
4	0	13.860000000000014	5	0	0	1	5
8	16	27.699999999999996	5	0	0	1	5
12	20	27.699999999999996	5	0	0	1	5
2	24	13.84	5	0	0	1	5
69	70	65.699999999999989	5	0	0	9	5
71	64	44.999999999999993	5	0	0	9	5
40	72	41.573169000000121	5	0	0	9	5
41	35	53.007767000000001	5	0	0	9	5
72	37	2.6188489999999547	5	0	0	9	5
73	38	1.728053999999986	5	0	0	9	5
39	69	1.7360630000000015	5	0	0	9	5
74	45	41.572594000000123	5	0	0	9	5
42	46	53.007153000000017	5	0	0	9	5
44	74	2.6188549999999111	5	0	0	9	5
75	66	65.700001774712504	5	0	0	9	5
70	76	65.699999999999989	5	0	0	9	5
77	59	41.573168999999893	5	0	0	9	5
52	60	53.008076000000017	5	0	0	9	5
61	78	41.572593999999896	5	0	0	9	5
62	53	53.007152999999988	5	0	0	9	5
78	55	2.6188549999999964	5	0	0	9	5
56	77	2.6264790000000175	5	0	0	9	5
57	75	1.7352329999999938	5	0	0	9	5
76	58	1.7289729999999963	5	0	0	9	5
63	73	65.699998225287402	5	0	0	9	5
65	71	44.999999999999993	5	0	0	9	5
1	137	90	5	1	0	0	5
94	138	9.2200000000000131	5	0	0	1	5
138	82	9.2199999999999989	5	0	0	1	5
98	139	9.2199999999999989	5	1	0	0	5
139	86	9.2199999999999989	5	0	0	1	5
102	140	9.2200000738041865	5	0	0	1	5
140	90	9.2199999261958094	5	0	0	1	5
79	141	13.860000000000014	5	0	0	1	5
83	91	27.699999999999996	5	0	0	1	5
87	95	27.699999999999996	5	0	0	1	5
0	99	13.84	5	0	0	1	5
142	143	65.699999999999989	5	0	0	9	5
144	145	44.999999999999993	5	0	0	9	5
113	146	41.573169000000121	5	0	0	9	5
114	108	53.007767000000001	5	0	0	9	5
146	110	2.6188489999999547	5	0	0	9	5
147	111	1.728053999999986	5	0	0	9	5
112	142	1.7360630000000015	5	0	0	9	5
148	118	41.572594000000123	5	0	0	9	5
115	119	53.007153000000017	5	0	0	9	5
117	148	2.6188549999999111	5	0	0	9	5
149	63	65.700001774712504	5	0	0	9	5
143	150	65.699999999999989	5	0	0	9	5
151	133	41.573168999999893	5	0	0	9	5
126	134	53.008076000000017	5	0	0	9	5
135	152	41.572593999999896	5	0	0	9	5
136	127	53.007152999999988	5	0	0	9	5
152	129	2.6188549999999964	5	0	0	9	5
130	151	2.6264790000000175	5	0	0	9	5
131	149	1.7352329999999938	5	0	0	9	5
150	132	1.7289729999999963	5	0	0	9	5
153	147	65.699998225287402	5	0	0	9	5
64	144	44.999999999999993	5	0	0	9	5
137	270	90	5	1	0	0	5
169	271	9.2200000000000131	5	0	0	1	5
271	157	9.2199999999999989	5	0	0	1	5
173	272	9.2199999999999989	5	1	0	0	5
272	161	9.2199999999999989	5	0	0	1	5
177	273	9.2200000738041865	5	0	0	1	5
273	165	9.2199999261958094	5	0	0	1	5
154	274	13.860000000000014	5	0	0	1	5
158	166	27.699999999999996	5	0	0	1	5
162	170	27.699999999999996	5	0	0	1	5
141	174	13.84	5	0	0	1	5
275	276	65.699999999999989	5	0	0	9	5
277	278	44.999999999999993	5	0	0	9	5
188	279	41.573169000000121	5	0	0	9	5
189	183	53.007767000000001	5	0	0	9	5
279	185	2.6188489999999547	5	0	0	9	5
280	186	1.728053999999986	5	0	0	9	5
187	275	1.7360630000000015	5	0	0	9	5
281	193	41.572594000000123	5	0	0	9	5
190	194	53.007153000000017	5	0	0	9	5
192	281	2.6188549999999111	5	0	0	9	5
282	153	65.700001774712504	5	0	0	9	5
276	283	65.699999999999989	5	0	0	9	5
284	208	41.573168999999893	5	0	0	9	5
201	209	53.008076000000017	5	0	0	9	5
210	285	41.572593999999896	5	0	0	9	5
211	202	53.007152999999988	5	0	0	9	5
285	204	2.6188549999999964	5	0	0	9	5
205	284	2.6264790000000175	5	0	0	9	5
206	282	1.7352329999999938	5	0	0	9	5
283	207	1.7289729999999963	5	0	0	9	5
286	280	65.699998225287402	5	0	0	9	5
145	277	44.999999999999993	5	0	0	9	5
270	3	90	5	1	0	0	5
227	287	9.2200000000000131	5	0	0	1	5
287	215	9.2199999999999989	5	0	0	1	5
231	288	9.2199999999999989	5	1	0	0	5
288	219	9.2199999999999989	5	0	0	1	5
235	289	9.2200000738041865	5	0	0	1	5
289	223	9.2199999261958094	5	0	0	1	5
212	2	13.860000000000014	5	0	0	1	5
216	224	27.699999999999996	5	0	0	1	5
220	228	27.699999999999996	5	0	0	1	5
274	232	13.84	5	0	0	1	5
290	291	65.699999999999989	5	0	0	9	5
292	65	44.999999999999993	5	0	0	9	5
246	293	41.573169000000121	5	0	0	9	5
247	241	53.007767000000001	5	0	0	9	5
293	243	2.6188489999999547	5	0	0	9	5
294	244	1.728053999999986	5	0	0	9	5
245	290	1.7360630000000015	5	0	0	9	5
295	251	41.572594000000123	5	0	0	9	5