[Format]      =  4.0
[Frequency]   =  0
[Precision]   =  1e-008
[MinAngle]    =  30
[DoSmartMesh] =  1
[Depth]       =  18
[LengthUnits] =  millimeters
[ProblemType] =  planar
[Coordinates] =  cartesian
[ACSolver]    =  0
[PrevType]    =  0
[PrevSoln]    =  ""
[Comment]     =  "Add comments here."
[PointProps]   = 0
[BdryProps]   = 6
  <BeginBdry>
    <BdryName> = "a0"
    <BdryType> = 0
    <A_0> = 0
    <A_1> = 0
    <A_2> = 0
    <Phi> = 0
    <c0> = 0
    <c0i> = 0
    <c1> = 0
    <c1i> = 0
    <Mu_ssd> = 0
    <Sigma_ssd> = 0
    <innerangle> = 0
    <outerangle> = 0
  <EndBdry>
  <BeginBdry>
    <BdryName> = "pbca"
    <BdryType> = 6
    <A_0> = 0
    <A_1> = 0
    <A_2> = 0
    <Phi> = 0
    <c0> = 0
    <c0i> = 0
    <c1> = 0
    <c1i> = 0
    <Mu_ssd> = 0
    <Sigma_ssd> = 0
    <innerangle> = -15
    <outerangle> = 26.367149999999999
  <EndBdry>
  <BeginBdry>
    <BdryName> = "pbc1"
    <BdryType> = 4
    <A_0> = 0
    <A_1> = 0
    <A_2> = 0
    <Phi> = 0
    <c0> = 0
    <c0i> = 0
    <c1> = 0
    <c1i> = 0
    <Mu_ssd> = 0
    <Sigma_ssd> = 0
    <innerangle> = 0
    <outerangle> = 0
  <EndBdry>
  <BeginBdry>
    <BdryName> = "pbc2"
    <BdryType> = 4
    <A_0> = 0
    <A_1> = 0
    <A_2> = 0
    <Phi> = 0
    <c0> = 0
    <c0i> = 0
    <c1> = 0
    <c1i> = 0
    <Mu_ssd> = 0
    <Sigma_ssd> = 0
    <innerangle> = 0
    <outerangle> = 0
  <EndBdry>
  <BeginBdry>
    <BdryName> = "pbc3"
    <BdryType> = 4
    <A_0> = 0
    <A_1> = 0
    <A_2> = 0
    <Phi> = 0
    <c0> = 0
    <c0i> = 0
    <c1> = 0
    <c1i> = 0
    <Mu_ssd> = 0
    <Sigma_ssd> = 0
    <innerangle> = 0
    <outerangle> = 0
  <EndBdry>
  <BeginBdry>
    <BdryName> = "pbc4"
    <BdryType> = 4
    <A_0> = 0
    <A_1> = 0
    <A_2> = 0
    <Phi> = 0
    <c0> = 0
    <c0i> = 0
    <c1> = 0
    <c1i> = 0
    <Mu_ssd> = 0
    <Sigma_ssd> = 0
    <innerangle> = 0
    <outerangle> = 0
  <EndBdry>
[BlockProps]  = 5
  <BeginBlock>
    <BlockName> = "air"
    <Mu_x> = 1
    <Mu_y> = 1
    <H_c> = 0
    <H_cAngle> = 0
    <J_re> = 0
    <J_im> = 0
    <Sigma> = 0
    <d_lam> = 0
    <Phi_h> = 0
    <Phi_hx> = 0
    <Phi_hy> = 0
    <LamType> = 0
    <LamFill> = 1
    <NStrands> = 0
    <WireD> = 0
    <BHPoints> = 0
  <EndBlock>
  <BeginBlock>
    <BlockName> = "steel"
    <Mu_x> = 1
    <Mu_y> = 1
    <H_c> = 0
    <H_cAngle> = 0
    <J_re> = 0
    <J_im> = 0
    <Sigma> = 5.7999999999999998
    <d_lam> = 0.5
    <Phi_h> = 0
    <Phi_hx> = 0
    <Phi_hy> = 0
    <LamType> = 0
    <LamFill> = 0.97999999999999998
    <NStrands> = 0
    <WireD> = 0
    <BHPoints> = 60
      0	0
      0.67085625500000001	200
      0.79152467800000004	300
      0.87141455499999998	400
      0.93123153700000005	500
      0.97906368300000002	600
      1.0189211	700
      1.0530867960000001	800
      1.0829850649999999	900
      1.109564545	1000
      1.1269532980000001	1100
      1.2036539900000001	1615.7894739999999
      1.2504264469999999	2131.578947
      1.2841759669999999	2647.3684210000001
      1.31059707	3163.1578949999998
      1.332311427	3678.9473680000001
      1.3507451150000001	4194.7368420000003
      1.366760558	4710.5263160000004
      1.3809192809999999	5226.3157890000002
      1.393607415	5742.1052630000004
      1.405101905	6257.8947369999996
      1.41560815	6773.6842109999998
      1.4252827100000001	7289.4736839999996
      1.4342476529999999	7805.2631579999997
      1.442600004	8321.0526320000008
      1.4504181519999999	8836.8421049999997
      1.4577663439999999	9352.6315790000008
      1.464697889	9868.421053
      1.47125751	10384.21053
      1.4765504380000001	11000
      1.477483095	10900
      1.488764478	12344.827590000001
      1.4989391080000001	13689.65517
      1.5076589229999999	15034.482760000001
      1.515288382	16379.31034
      1.52207011	17724.137930000001
      1.528173797	19068.965520000002
      1.533722786	20413.793099999999
      1.538809552	21758.62069
      1.5435052140000001	23103.448280000001
      1.547865643	24448.275860000002
      1.551935531	25793.103449999999
      1.5557511909999999	27137.93103
      1.5593425240000001	28482.758620000001
      1.56273445	29827.586210000001
      1.5659479510000001	31172.413789999999
      1.5690008660000001	32517.241379999999
      1.571908482	33862.06897
      1.5746840040000001	35206.896549999998
      1.5773389149999999	36551.724139999998
      1.5798832620000001	37896.551720000003
      1.5823258870000001	39241.379309999997
      1.5846746119999999	40586.206899999997
      1.5869363889999999	41931.034480000002
      1.5891174269999999	43275.862070000003
      1.5912232930000001	44620.689659999996
      1.593258995	45965.517240000001
      1.595229059	47310.344830000002
      1.597137587	48655.172409999999
      1.598988305	50000
  <EndBlock>
  <BeginBlock>
    <BlockName> = "FeSi65"
    <Mu_x> = 1
    <Mu_y> = 1
    <H_c> = 0
    <H_cAngle> = 0
    <J_re> = 0
    <J_im> = 0
    <Sigma> = 5.7999999999999998
    <d_lam> = 0
    <Phi_h> = 0
    <Phi_hx> = 0
    <Phi_hy> = 0
    <LamType> = 0
    <LamFill> = 1
    <NStrands> = 0
    <WireD> = 0
    <BHPoints> = 58
      0	0
      0.35829462699999998	235.7142857
      0.47802809200000002	371.42857140000001
      0.56314887199999997	507.14285710000001
      0.62924455599999995	642.85714289999999
      0.68328513800000001	778.57142859999999
      0.72899703699999996	914.2857143
      0.76860793599999999	1050
      0.80355628199999996	1185.7142859999999
      0.83482503100000005	1321.4285709999999
      0.86311572800000003	1457.142857
      0.88894663500000004	1592.857143
      0.91271148700000004	1728.5714290000001
      0.93471644799999998	1864.2857140000001
      0.95520429900000003	2000
      1.030452669	2571.4285709999999
      1.086202243	3142.8571430000002
      1.1306884020000001	3714.2857140000001
      1.167706237	4285.7142860000004
      1.199406524	4857.1428569999998
      1.2271268360000001	5428.5714289999996
      1.251755988	6000
      1.273914738	6571.4285710000004
      1.294053804	7142.8571430000002
      1.3125108000000001	7714.2857139999996
      1.3295451760000001	8285.7142860000004
      1.3453606300000001	8857.1428570000007
      1.3601200170000001	9428.5742900000005
      1.3739555889999999	10000
      1.4022484930000001	11379.31034
      1.4252685469999999	12758.62069
      1.443943891	14137.93103
      1.4596570209999999	15517.241379999999
      1.473220258	16896.551719999999
      1.485151723	18275.862069999999
      1.495802219	19655.172409999999
      1.5054203239999999	21034.482759999999
      1.5141886179999999	22413.793099999999
      1.522245155	23793.103449999999
      1.529696862	25172.413789999999
      1.5366282449999999	26551.724139999998
      1.54310725	27931.034479999998
      1.549189325	29310.344829999998
      1.5549203110000001	30689.655170000002
      1.5603385380000001	32068.965520000002
      1.5654763840000001	33448.275860000002
      1.570361444	34827.586210000001
      1.5750174320000001	6206.8965500000004
      1.5794648710000001	37586.206899999997
      1.5837216460000001	38965.517240000001
      1.5878034350000001	40344.827590000001
      1.5917240589999999	41724.137929999997
      1.595495761	43103.448279999997
      1.599129443	44482.758620000001
      1.6026348500000001	45862.06897
      1.6060207310000001	47241.379309999997
      1.609294969	48620.689659999996
      1.6124646920000001	50000
  <EndBlock>
  <BeginBlock>
    <BlockName> = "ml"
    <Mu_x> = 1
    <Mu_y> = 1
    <H_c> = 200106
    <H_cAngle> = 0
    <J_re> = 0
    <J_im> = 0
    <Sigma> = 0
    <d_lam> = 0
    <Phi_h> = 0
    <Phi_hx> = 0
    <Phi_hy> = 0
    <LamType> = 0
    <LamFill> = 1
    <NStrands> = 0
    <WireD> = 0
    <BHPoints> = 10
      0	0
      0.066000000000000003	1160
      0.13139000000000001	2323.6599999999999
      0.14399999999999999	3490
      0.15328	6000
      0.16239999999999999	11630
      0.17152999999999999	18613.200000000001
      0.21168000000000001	51192.199999999997
      0.27372000000000002	102376
      0.38685999999999998	200106
  <EndBlock>
  <BeginBlock>
    <BlockName> = "mr"
    <Mu_x> = 1
    <Mu_y> = 1
    <H_c> = 200106
    <H_cAngle> = 0
    <J_re> = 0
    <J_im> = 0
    <Sigma> = 0
    <d_lam> = 0
    <Phi_h> = 0
    <Phi_hx> = 0
    <Phi_hy> = 0
    <LamType> = 0
    <LamFill> = 1
    <NStrands> = 0
    <WireD> = 0
    <BHPoints> = 10
      0	0
      0.066000000000000003	1160
      0.13139000000000001	2323.6599999999999
      0.14399999999999999	3490
      0.15328	6000
      0.16239999999999999	11630
      0.17152999999999999	18613.200000000001
      0.21168000000000001	51192.199999999997
      0.27372000000000002	102376
      0.38685999999999998	200106
  <EndBlock>
[CircuitProps]  = 0
[NumPoints] = 333
0	22.5	0	1
0	43.25	0	1
22.5	0	0	1
43.25	0	0	1
5.3875970000000004	21.845452999999999	0	1
5.5311120000000003	22.381059	0	1
3.5392379999999992	24.954274000000002	0	1
3.726719999999998	36.820067000000002	0	1
15.588523	16.224919	0	1
15.980613	16.617008999999999	0	1
15.542206999999999	19.841415999999999	0	1
21.637467999999998	30.023754	0	1
21.612515999999999	6.256929999999997	0	1
22.148122000000001	6.400445999999997	0	1
23.380654	9.4120670000000004	0	1
33.750473	15.182600000000001	0	1
6.256929999999997	21.612515999999999	0	1
6.400445999999997	22.148122000000001	0	1
9.4120670000000004	23.380654	0	1
15.182600000000001	33.750473	0	1
16.224919	15.588523	0	1
16.617008999999999	15.980613	0	1
19.841415999999999	15.542206999999999	0	1
30.023754	21.637467999999998	0	1
21.845452999999999	5.3875970000000004	0	1
22.381059	5.5311120000000003	0	1
24.954274000000002	3.5392379999999992	0	1
36.820067000000002	3.726719999999998	0	1
9.5784164450395703	35.74713530974455	0	1
26.168719864704961	26.168719864704961	0	1
35.747135297405627	9.5784164910890368	0	1
4.8921068313657807	19.887123360966225	0	9
10.600019890829309	17.523412333807702	0	9
5.4799208328077356	21.306582969622561	0	9
11.187833892271268	18.942871942464055	0	9
7.0719695640176807	18.443241772034359	0	9
5.1254561775408281	19.24931502066902	0	9
3.9486718609256246	19.736634116634384	0	9
4.6285479289091924	21.659145921231723	0	9
12.042718837419399	18.58885425573769	0	9
0.14994444138114194	18.072690936345449	0	9
0.14990604491182058	14.841935639083575	0	9
8.0407036890067225	18.041978959130279	0	9
9.9870724448086392	17.235567627713039	0	9
11.163774789445473	16.748041395090475	0	9
12.671813645909916	12.883946143879083	0	9
10.387858837554127	10.59999072417984	0	9
17.521562291288081	10.603077840031254	0	9
19.886269323105264	4.8955785276553412	0	9
18.940918874759056	11.191139627303304	0	9
21.305625906576253	5.4836403149273938	0	9
19.248418567138536	5.1288189835665721	0	9
18.443318140431984	7.0720251507487708	0	9
18.041978849544087	8.0407035023379869	0	9
17.235567190885568	9.9870726503560547	0	9
16.748041135137477	11.163774609175164	0	9
19.737160566663924	3.9491840899151827	0	9
21.659718294342472	4.6287856700490968	0	9
18.588281449402658	12.042481682199004	0	9
18.072691468680539	0.14994444452448086	0	9
14.841936723879908	0.14995276284913839	0	9
12.883945706487918	12.671813968582779	0	9
10.59999089813213	10.387858548883557	0	9
-8.8817841970012523e-016	18.57065098132939	0	9
4.4408920985006262e-016	6.0000000000000036	0	9
6.0000000000000027	1.3322676295501878e-015	0	9
18.57065098132939	8.8817841970012523e-016	0	9
9.6964544601330722	17.897589781968826	0	9
19.511516139586558	5.7989042709725567	0	9
11.986889566688747	18.447614723656823	0	9
13.13143379355494	13.131433202816392	0	9
4.2426406871192874	4.2426406871192892	0	9
3.7687934256154185	19.560230610285601	0	9
4.5684230107276864	21.52044445466931	0	9
11.166232036074828	16.496110988792584	0	9
21.520444454669345	4.568423321248785	0	9
18.447614943228395	11.986889347117174	0	9
19.560230610285601	3.7687937361365105	0	9
16.496111208364134	11.166231816503258	0	9
-21.845452999999999	5.3875970000000022	0	1
-22.381059	5.531112000000002	0	1
-24.954274000000002	3.5392380000000006	0	1
-36.820067000000002	3.7267200000000003	0	1
-16.224919	15.588523000000002	0	1
-16.617008999999999	15.980613000000002	0	1
-19.841415999999999	15.542207000000001	0	1
-30.023754	21.637468000000002	0	1
-6.2569299999999961	21.612515999999999	0	1
-6.4004459999999952	22.148122000000001	0	1
-9.4120669999999986	23.380654	0	1
-15.182599999999999	33.750473	0	1
-21.612515999999999	6.2569299999999979	0	1
-22.148122000000001	6.4004459999999987	0	1
-23.380654	9.4120670000000022	0	1
-33.750473	15.182600000000003	0	1
-15.588522999999999	16.224919	0	1
-15.980612999999998	16.617008999999999	0	1
-15.542206999999998	19.841415999999999	0	1
-21.637467999999995	30.023754	0	1
-5.3875969999999986	21.845452999999999	0	1
-5.5311119999999985	22.381059	0	1
-3.5392379999999979	24.954274000000002	0	1
-3.7267199999999958	36.820067000000002	0	1
-19.887123360966225	4.8921068313657816	0	9
-17.897589781968833	9.6964544601330758	0	9
-21.306582969622553	5.4799208328077365	0	9
-17.523412333807702	10.600019890829309	0	9
-18.942871942464055	11.187833892271268	0	9
-18.443241772034359	7.0719695640176816	0	9
-19.24931502066902	5.1254561775408298	0	9
-19.736634116634367	3.9486718609256251	0	9
-21.659145921231723	4.6285479289091942	0	9
-18.58885425573769	12.042718837419399	0	9
-18.072690936345449	0.1499444413811446	0	9
-14.841935639083575	0.14990604491182147	0	9
-18.041978959130279	8.0407036890067225	0	9
-17.235567627713039	9.9870724448086392	0	9
-16.748041395090475	11.16377478944548	0	9
-12.883946143879083	12.671813645909916	0	9
-10.59999072417984	10.387858837554127	0	9
-10.603077840031254	17.521562291288081	0	9
-5.7989042709725549	19.511516139586558	0	9
-11.191139627303304	18.940918874759056	0	9
-4.8955785276553412	19.886269323105264	0	9
-5.483640314927392	21.305625906576253	0	9
-5.1288189835665721	19.248418567138536	0	9
-7.0720251507487708	18.443318140431984	0	9
-8.0407035023379834	18.041978849544087	0	9
-9.9870726503560583	17.235567190885561	0	9
-11.163774609175164	16.748041135137477	0	9
-3.9491840899151827	19.737160566663924	0	9
-4.628785670049095	21.659718294342472	0	9
-12.042481682198998	18.588281449402665	0	9
-0.14994444452447997	18.072691468680539	0	9
-0.1499527628491375	14.841936723879908	0	9
-12.671813968582779	12.883945706487918	0	9
-10.387858548883557	10.59999089813213	0	9
-43.25	2.6482987031561511e-015	0	1
-35.74713530974455	9.5784164450395721	0	1
-26.168719864704961	26.168719864704961	0	1
-9.578416491089035	35.747135297405627	0	1
-22.5	1.3777276490407724e-015	0	1
-18.447614723656823	11.986889566688747	0	9
-13.131433202816392	13.13143379355494	0	9
-4.2426406871192892	4.2426406871192874	0	9
-6.0000000000000036	4.4408920985006262e-016	0	9
-19.560230610285601	3.7687934256154185	0	9
-21.52044445466931	4.5684230107276864	0	9
-16.496110988792584	11.166232036074828	0	9
-4.568423321248785	21.520444454669345	0	9
-11.986889347117174	18.447614943228395	0	9
-3.7687937361365078	19.560230610285597	0	9
-11.166231816503252	16.496111208364134	0	9
-18.57065098132939	-8.8817841970012523e-016	0	9
-5.3875970000000031	-21.845452999999999	0	1
-5.5311120000000029	-22.381059	0	1
-3.5392380000000023	-24.954274000000002	0	1
-3.7267200000000025	-36.820067000000002	0	1
-15.588523000000002	-16.224918999999996	0	1
-15.980613000000002	-16.617008999999996	0	1
-15.542207000000001	-19.841415999999995	0	1
-21.637468000000002	-30.023753999999997	0	1
-21.612515999999999	-6.2569299999999943	0	1
-22.148122000000001	-6.4004459999999943	0	1
-23.380654	-9.4120669999999969	0	1
-33.750473	-15.182599999999997	0	1
-6.2569299999999997	-21.612515999999999	0	1
-6.4004459999999996	-22.148122000000001	0	1
-9.412067000000004	-23.380654	0	1
-15.182600000000004	-33.750473	0	1
-16.224919000000003	-15.588522999999999	0	1
-16.617009000000003	-15.980612999999998	0	1
-19.841416000000002	-15.542206999999998	0	1
-30.023754000000004	-21.637467999999995	0	1
-21.845452999999999	-5.3875969999999977	0	1
-22.381059	-5.5311119999999976	0	1
-24.954274000000002	-3.5392379999999961	0	1
-36.820067000000002	-3.7267199999999936	0	1
-4.8921068313657834	-19.887123360966225	0	9
-9.6964544601330758	-17.897589781968833	0	9
-5.4799208328077391	-21.306582969622557	0	9
-10.600019890829309	-17.523412333807702	0	9
-11.187833892271268	-18.942871942464055	0	9
-7.0719695640176816	-18.443241772034362	0	9
-5.1254561775408316	-19.24931502066902	0	9
-3.9486718609256259	-19.736634116634367	0	9
-4.6285479289092031	-21.659145921231723	0	9
-12.042718837419399	-18.58885425573769	0	9
-0.1499444413811446	-18.072690936345449	0	9
-0.14990604491182502	-14.841935639083575	0	9
-8.0407036890067225	-18.041978959130279	0	9
-9.9870724448086392	-17.235567627713039	0	9
-11.16377478944548	-16.748041395090475	0	9
-12.671813645909916	-12.883946143879083	0	9
-10.387858837554127	-10.599990724179841	0	9
-17.521562291288081	-10.603077840031254	0	9
-19.511516139586558	-5.7989042709725549	0	9
-18.940918874759056	-11.191139627303304	0	9
-19.886269323105264	-4.8955785276553412	0	9
-21.305625906576253	-5.483640314927392	0	9
-19.248418567138536	-5.1288189835665703	0	9
-18.443318140431984	-7.0720251507487681	0	9
-18.041978849544087	-8.0407035023379834	0	9
-17.235567190885561	-9.9870726503560583	0	9
-16.748041135137477	-11.163774609175164	0	9
-19.737160566663924	-3.94918408991518	0	9
-21.659718294342472	-4.628785670049095	0	9
-18.588281449402665	-12.042481682198998	0	9
-18.072691468680539	-0.14994444452447908	0	9
-14.841936723879908	-0.1499527628491375	0	9
-12.883945706487918	-12.671813968582779	0	9
-10.599990898132127	-10.387858548883557	0	9
21.845452999999999	-5.3875970000000049	0	1
22.381059	-5.5311120000000047	0	1
24.954274000000002	-3.5392380000000037	0	1
36.820067000000002	-3.7267200000000047	0	1
16.224918999999996	-15.588523000000004	0	1
16.617008999999996	-15.980613000000004	0	1
19.841415999999995	-15.542207000000003	0	1
30.023753999999997	-21.637468000000005	0	1
6.2569299999999934	-21.612515999999999	0	1
6.4004459999999925	-22.148122000000001	0	1
9.4120669999999951	-23.380654	0	1
15.182599999999995	-33.750473	0	1
21.612515999999999	-6.2569300000000005	0	1
22.148122000000001	-6.4004460000000014	0	1
23.380654	-9.4120670000000057	0	1
33.750473	-15.182600000000006	0	1
15.588522999999997	-16.224919000000003	0	1
15.980612999999996	-16.617009000000003	0	1
15.542206999999996	-19.841416000000002	0	1
21.637467999999991	-30.023754000000004	0	1
5.387596999999996	-21.845452999999999	0	1
5.5311119999999958	-22.381059	0	1
3.5392379999999948	-24.954274000000002	0	1
3.7267199999999914	-36.820067000000002	0	1
19.887123360966225	-4.8921068313657834	0	9
17.897589781968833	-9.6964544601330758	0	9
21.306582969622557	-5.4799208328077391	0	9
17.523412333807702	-10.600019890829309	0	9
18.942871942464055	-11.187833892271271	0	9
18.443241772034362	-7.0719695640176816	0	9
19.24931502066902	-5.1254561775408316	0	9
19.736634116634367	-3.9486718609256259	0	9
21.659145921231723	-4.6285479289092031	0	9
18.588854255737697	-12.042718837419404	0	9
18.072690936345449	-0.1499444413811446	0	9
14.841935639083575	-0.14990604491182591	0	9
18.041978959130279	-8.0407036890067243	0	9
17.235567627713042	-9.9870724448086428	0	9
16.748041395090475	-11.16377478944548	0	9
12.883946143879083	-12.671813645909916	0	9
10.599990724179841	-10.387858837554127	0	9
10.603077840031245	-17.521562291288081	0	9
5.7989042709725549	-19.511516139586558	0	9
11.191139627303301	-18.940918874759056	0	9
4.8955785276553359	-19.886269323105267	0	9
5.483640314927392	-21.305625906576253	0	9
5.1288189835665721	-19.248418567138522	0	9
7.0720251507487681	-18.443318140431984	0	9
8.0407035023379834	-18.041978849544087	0	9
9.9870726503560547	-17.235567190885561	0	9
11.163774609175164	-16.748041135137477	0	9
3.94918408991518	-19.737160566663924	0	9
4.6287856700490932	-21.659718294342472	0	9
12.042481682199007	-18.588281449402665	0	9
0.14994444452447819	-18.072691468680539	0	9
0.14995276284913572	-14.841936723879911	0	9
12.671813968582779	-12.883945706487918	0	9
10.387858548883557	-10.599990898132127	0	9
-5.2965974063123023e-015	-43.25	0	1
-9.5784164450395739	-35.74713530974455	0	1
-26.168719864704965	-26.168719864704958	0	1
-35.747135297405627	-9.5784164910890333	0	1
-2.7554552980815448e-015	-22.5	0	1
-11.986889566688747	-18.447614723656823	0	9
-13.13143379355494	-13.131433202816398	0	9
-4.2426406871192874	-4.2426406871192892	0	9
-8.8817841970012523e-016	-6.0000000000000036	0	9
-3.7687934256154185	-19.560230610285601	0	9
-4.5684230107276882	-21.52044445466931	0	9
-11.166232036074828	-16.496110988792584	0	9
-21.520444454669335	-4.5684233212487806	0	9
-18.447614943228395	-11.986889347117174	0	9
-19.560230610285597	-3.7687937361365078	0	9
-16.496111208364134	-11.166231816503252	0	9
0	-18.57065098132939	0	9
35.74713530974455	-9.5784164450395757	0	1
26.168719864704958	-26.168719864704965	0	1
9.5784164910890315	-35.747135297405627	0	1
18.447614723656827	-11.986889566688756	0	9
13.131433202816398	-13.13143379355494	0	9
4.2426406871192892	-4.2426406871192874	0	9
19.560230610285608	-3.7687934256154247	0	9
21.52044445466931	-4.56842301072769	0	9
16.496110988792587	-11.166232036074833	0	9
4.5684233212487806	-21.520444454669335	0	9
11.98688934711717	-18.447614943228395	0	9
3.7687937361365069	-19.560230610285601	0	9
11.166231816503252	-16.496111208364134	0	9
0	0	0	9
5.6091285712616035	21.381012059092448	0	9
10.413302140320294	19.391058210793975	0	9
5.0351034227139699	19.995192760325519	0	9
9.8392769917726621	18.005238912027046	0	9
-11.152405766329329	19.084911464901911	0	9
-6.3482321972706295	21.074865313200373	0	9
-10.57838061778169	17.699092166134982	0	9
-5.7742070487229951	19.689046014433444	0	9
-21.381012059092448	5.6091285712616052	0	9
-19.391058210793975	10.413302140320296	0	9
-19.995192760325519	5.0351034227139708	0	9
-18.005238912027046	9.8392769917726639	0	9
-19.084911464901911	-11.152405766329329	0	9
-21.074865313200373	-6.3482321972706295	0	9
-17.699092166134982	-10.57838061778169	0	9
-19.689046014433444	-5.7742070487229951	0	9
-5.6091285712616052	-21.381012059092448	0	9
-10.413302140320297	-19.391058210793975	0	9
-5.0351034227139717	-19.995192760325516	0	9
-9.8392769917726639	-18.005238912027046	0	9
11.152405766329327	-19.084911464901914	0	9
6.3482321972706295	-21.074865313200373	0	9
10.57838061778169	-17.699092166134982	0	9
5.7742070487229951	-19.689046014433444	0	9
21.381012059092445	-5.609128571261607	0	9
19.391058210793975	-10.413302140320297	0	9
19.995192760325516	-5.0351034227139735	0	9
18.005238912027046	-9.8392769917726657	0	9
19.084911464901914	11.152405766329323	0	9
21.074865313200373	6.3482321972706277	0	9
17.699092166134978	10.578380617781686	0	9
19.689046014433444	5.7742070487229933	0	9
[NumSegments] = 200
4	5	-1	0	0	1
5	6	-1	0	0	1
6	7	-1	0	0	1
8	9	-1	0	0	1
9	10	-1	0	0	1
10	11	-1	0	0	1
12	13	-1	0	0	1
13	14	-1	0	0	1
14	15	-1	0	0	1
16	17	-1	0	0	1
17	18	-1	0	0	1
18	19	-1	0	0	1
20	21	-1	0	0	1
21	22	-1	0	0	1
22	23	-1	0	0	1
24	25	-1	0	0	1
25	26	-1	0	0	1
26	27	-1	0	0	1
31	67	-1	0	0	9
31	33	-1	0	0	9
32	34	-1	0	0	9
35	36	-1	0	0	9
36	37	-1	0	0	9
33	38	-1	0	0	9
34	39	-1	0	0	9
40	41	-1	0	0	9
42	43	-1	0	0	9
43	44	-1	0	0	9
45	46	-1	0	0	9
47	68	-1	0	0	9
47	49	-1	0	0	9
48	50	-1	0	0	9
51	52	-1	0	0	9
53	54	-1	0	0	9
54	55	-1	0	0	9
51	56	-1	0	0	9
50	57	-1	0	0	9
49	58	-1	0	0	9
59	60	-1	0	0	9
61	62	-1	0	0	9
67	32	-1	0	0	9
68	48	-1	0	0	9
79	80	-1	0	0	1
80	81	-1	0	0	1
81	82	-1	0	0	1
83	84	-1	0	0	1
84	85	-1	0	0	1
85	86	-1	0	0	1
87	88	-1	0	0	1
88	89	-1	0	0	1
89	90	-1	0	0	1
91	92	-1	0	0	1
92	93	-1	0	0	1
93	94	-1	0	0	1
95	96	-1	0	0	1
96	97	-1	0	0	1
97	98	-1	0	0	1
99	100	-1	0	0	1
100	101	-1	0	0	1
101	102	-1	0	0	1
103	104	-1	0	0	9
103	105	-1	0	0	9
106	107	-1	0	0	9
108	109	-1	0	0	9
109	110	-1	0	0	9
105	111	-1	0	0	9
107	112	-1	0	0	9
113	114	-1	0	0	9
115	116	-1	0	0	9
116	117	-1	0	0	9
118	119	-1	0	0	9
120	121	-1	0	0	9
120	122	-1	0	0	9
123	124	-1	0	0	9
125	126	-1	0	0	9
127	128	-1	0	0	9
128	129	-1	0	0	9
125	130	-1	0	0	9
124	131	-1	0	0	9
122	132	-1	0	0	9
133	134	-1	0	0	9
135	136	-1	0	0	9
104	106	-1	0	0	9
121	123	-1	0	0	9
154	155	-1	0	0	1
155	156	-1	0	0	1
156	157	-1	0	0	1
158	159	-1	0	0	1
159	160	-1	0	0	1
160	161	-1	0	0	1
162	163	-1	0	0	1
163	164	-1	0	0	1
164	165	-1	0	0	1
166	167	-1	0	0	1
167	168	-1	0	0	1
168	169	-1	0	0	1
170	171	-1	0	0	1
171	172	-1	0	0	1
172	173	-1	0	0	1
174	175	-1	0	0	1
175	176	-1	0	0	1
176	177	-1	0	0	1
178	179	-1	0	0	9
178	180	-1	0	0	9
181	182	-1	0	0	9
183	184	-1	0	0	9
184	185	-1	0	0	9
180	186	-1	0	0	9
182	187	-1	0	0	9
188	189	-1	0	0	9
190	191	-1	0	0	9
191	192	-1	0	0	9
193	194	-1	0	0	9
195	196	-1	0	0	9
195	197	-1	0	0	9
198	199	-1	0	0	9
200	201	-1	0	0	9
202	203	-1	0	0	9
203	204	-1	0	0	9
200	205	-1	0	0	9
199	206	-1	0	0	9
197	207	-1	0	0	9
208	209	-1	0	0	9
210	211	-1	0	0	9
179	181	-1	0	0	9
196	198	-1	0	0	9
212	213	-1	0	0	1
213	214	-1	0	0	1
214	215	-1	0	0	1
216	217	-1	0	0	1
217	218	-1	0	0	1
218	219	-1	0	0	1
220	221	-1	0	0	1
221	222	-1	0	0	1
222	223	-1	0	0	1
224	225	-1	0	0	1
225	226	-1	0	0	1
226	227	-1	0	0	1
228	229	-1	0	0	1
229	230	-1	0	0	1
230	231	-1	0	0	1
232	233	-1	0	0	1
233	234	-1	0	0	1
234	235	-1	0	0	1
236	237	-1	0	0	9
236	238	-1	0	0	9
239	240	-1	0	0	9
241	242	-1	0	0	9
242	243	-1	0	0	9
238	244	-1	0	0	9
240	245	-1	0	0	9
246	247	-1	0	0	9
248	249	-1	0	0	9
249	250	-1	0	0	9
251	252	-1	0	0	9
253	254	-1	0	0	9
253	255	-1	0	0	9
256	257	-1	0	0	9
258	259	-1	0	0	9
260	261	-1	0	0	9
261	262	-1	0	0	9
258	263	-1	0	0	9
257	264	-1	0	0	9
255	265	-1	0	0	9
266	267	-1	0	0	9
268	269	-1	0	0	9
237	239	-1	0	0	9
254	256	-1	0	0	9
301	302	-1	0	0	9
301	303	-1	0	0	9
302	304	-1	0	0	9
304	303	-1	0	0	9
305	306	-1	0	0	9
305	307	-1	0	0	9
306	308	-1	0	0	9
308	307	-1	0	0	9
309	310	-1	0	0	9
309	311	-1	0	0	9
310	312	-1	0	0	9
312	311	-1	0	0	9
313	314	-1	0	0	9
313	315	-1	0	0	9
314	316	-1	0	0	9
316	315	-1	0	0	9
317	318	-1	0	0	9
317	319	-1	0	0	9
318	320	-1	0	0	9
320	319	-1	0	0	9
321	322	-1	0	0	9
321	323	-1	0	0	9
322	324	-1	0	0	9
324	323	-1	0	0	9
325	326	-1	0	0	9
325	327	-1	0	0	9
326	328	-1	0	0	9
328	327	-1	0	0	9
329	330	-1	0	0	9
329	331	-1	0	0	9
330	332	-1	0	0	9
332	331	-1	0	0	9
[NumArcSegments] = 132
3	1	90	5	1	0	0	5
19	28	9.2200000000000131	5	0	0	1	5
28	7	9.2199999999999989	5	0	0	1	5
23	29	9.2199999999999989	5	1	0	0	5
29	11	9.2199999999999989	5	0	0	1	5
27	30	9.2200000738041865	5	0	0	1	5
30	15	9.2199999261958094	5	0	0	1	5
4	0	13.860000000000014	5	0	0	1	5
8	16	27.699999999999996	5	0	0	1	5
12	20	27.699999999999996	5	0	0	1	5
2	24	13.84	5	0	0	1	5
69	70	65.699999999999989	5	0	0	9	5
71	64	44.999999999999993	5	0	0	9	5
40	72	41.573169000000121	5	0	0	9	5
41	35	53.007767000000001	5	0	0	9	5
72	37	2.6188489999999547	5	0	0	9	5
73	38	1.728053999999986	5	0	0	9	5
39	69	1.7360630000000015	5	0	0	9	5
74	45	41.572594000000123	5	0	0	9	5
42	46	53.007153000000017	5	0	0	9	5
44	74	2.6188549999999111	5	0	0	9	5
75	66	65.700001774712504	5	0	0	9	5
70	76	65.699999999999989	5	0	0	9	5
77	59	41.573168999999893	5	0	0	9	5
52	60	53.008076000000017	5	0	0	9	5
61	78	41.572593999999896	5	0	0	9	5
62	53	53.007152999999988	5	0	0	9	5
78	55	2.6188549999999964	5	0	0	9	5
56	77	2.6264790000000175	5	0	0	9	5
57	75	1.7352329999999938	5	0	0	9	5
76	58	1.7289729999999963	5	0	0	9	5
63	73	65.699998225287402	5	0	0	9	5
65	71	44.999999999999993	5	0	0	9	5
1	137	90	5	1	0	0	5
94	138	9.2200000000000131	5	0	0	1	5
138	82	9.2199999999999989	5	0	0	1	5
98	139	9.2199999999999989	5	1	0	0	5
139	86	9.2199999999999989	5	0	0	1	5
102	140	9.2200000738041865	5	0	0	1	5
140	90	9.2199999261958094	5	0	0	1	5
79	141	13.860000000000014	5	0	0	1	5
83	91	27.699999999999996	5	0	0	1	5
87	95	27.699999999999996	5	0	0	1	5
0	99	13.84	5	0	0	1	5
142	143	65.699999999999989	5	0	0	9	5
144	145	44.999999999999993	5	0	0	9	5
113	146	41.573169000000121	5	0	0	9	5
114	108	53.007767000000001	5	0	0	9	5
146	110	2.6188489999999547	5	0	0	9	5
147	111	1.728053999999986	5	0	0	9	5
112	142	1.7360630000000015	5	0	0	9	5
148	118	41.572594000000123	5	0	0	9	5
115	119	53.007153000000017	5	0	0	9	5
117	148	2.6188549999999111	5	0	0	9	5
149	63	65.700001774712504	5	0	0	9	5
143	150	65.699999999999989	5	0	0	9	5
151	133	41.573168999999893	5	0	0	9	5
126	134	53.008076000000017	5	0	0	9	5
135	152	41.572593999999896	5	0	0	9	5
136	127	53.007152999999988	5	0	0	9	5
152	129	2.6188549999999964	5	0	0	9	5
130	151	2.6264790000000175	5	0	0	9	5
131	149	1.7352329999999938	5	0	0	9	5
150	132	1.7289729999999963	5	0	0	9	5
153	147	65.699998225287402	5	0	0	9	5
64	144	44.999999999999993	5	0	0	9	5
137	270	90	5	1	0	0	5
169	271	9.2200000000000131	5	0	0	1	5
271	157	9.2199999999999989	5	0	0	1	5
173	272	9.2199999999999989	5	1	0	0	5
272	161	9.2199999999999989	5	0	0	1	5
177	273	9.2200000738041865	5	0	0	1	5
273	165	9.2199999261958094	5	0	0	1	5
154	274	13.860000000000014	5	0	0	1	5
158	166	27.699999999999996	5	0	0	1	5
162	170	27.699999999999996	5	0	0	1	5
141	174	13.84	5	0	0	1	5
275	276	65.699999999999989	5	0	0	9	5
277	278	44.999999999999993	5	0	0	9	5
188	279	41.573169000000121	5	0	0	9	5
189	183	53.007767000000001	5	0	0	9	5
279	185	2.6188489999999547	5	0	0	9	5
280	186	1.728053999999986	5	0	0	9	5
187	275	1.7360630000000015	5	0	0	9	5
281	193	41.572594000000123	5	0	0	9	5
190	194	53.007153000000017	5	0	0	9	5
192	281	2.6188549999999111	5	0	0	9	5
282	153	65.700001774712504	5	0	0	9	5
276	283	65.699999999999989	5	0	0	9	5
284	208	41.573168999999893	5	0	0	9	5
201	209	53.008076000000017	5	0	0	9	5
210	285	41.572593999999896	5	0	0	9	5
211	202	53.007152999999988	5	0	0	9	5
285	204	2.6188549999999964	5	0	0	9	5
205	284	2.6264790000000175	5	0	0	9	5
206	282	1.7352329999999938	5	0	0	9	5
283	207	1.7289729999999963	5	0	0	9	5
286	280	65.699998225287402	5	0	0	9	5
145	277	44.999999999999993	5	0	0	9	5
270	3	90	5	1	0	0	5
227	287	9.2200000000000131	5	0	0	1	5
287	215	9.2199999999999989	5	0	0	1	5
231	288	9.2199999999999989	5	1	0	0	5
288	219	9.2199999999999989	5	0	0	1	5
235	289	9.2200000738041865	5	0	0	1	5
289	223	9.2199999261958094	5	0	0	1	5
212	2	13.860000000000014	5	0	0	1	5
216	224	27.699999999999996	5	0	0	1	5
220	228	27.699999999999996	5	0	0	1	5
274	232	13.84	5	0	0	1	5
290	291	65.699999999999989	5	0	0	9	5
292	65	44.999999999999993	5	0	0	9	5
246	293	41.573169000000121	5	0	0	9	5
247	241	53.007767000000001	5	0	0	9	5
293	243	2.6188489999999547	5	0	0	9	5
294	244	1.728053999999986	5	0	0	9	5
245	290	1.7360630000000015	5	0	0	9	5
295	251	41.572594000000123	5	0	0	9	5
248	252	53.007153000000017	5	0	0	9	5