[Format]      =  4.0
[Frequency]   =  0
[Precision]   =  1e-008
[MinAngle]    =  30
[DoSmartMesh] =  1
[Depth]       =  18
[LengthUnits] =  millimeters
[ProblemType] =  planar
[Coordinates] =  cartesian
[ACSolver]    =  0
[PrevType]    =  0
[PrevSoln]    =  ""
[Comment]     =  "Add comments here."
[PointProps]   = 0
[BdryProps]   = 6
  <BeginBdry>
    <BdryName> = "a0"
    <BdryType> = 0
    <A_0> = 0
    <A_1> = 0
    <A_2> = 0
    <Phi> = 0
    <c0> = 0
    <c0i> = 0
    <c1> = 0
    <c1i> = 0
    <Mu_ssd> = 0
    <Sigma_ssd> = 0
    <innerangle> = 0
    <outerangle> = 0
  <EndBdry>
  <BeginBdry>
    <BdryName> = "pbca"
    <BdryType> = 6
    <A_0> = 0
    <A_1> = 0
    <A_2> = 0
    <Phi> = 0
    <c0> = 0
    <c0i> = 0
    <c1> = 0
    <c1i> = 0
    <Mu_ssd> = 0
    <Sigma_ssd> = 0
    <innerangle> = -15
    <outerangle> = 26.367149999999999
  <EndBdry>
  <BeginBdry>
    <BdryName> = "pbc1"
    <BdryType> = 4
    <A_0> = 0
    <A_1> = 0
    <A_2> = 0
    <Phi> = 0
    <c0> = 0
    <c0i> = 0
    <c1> = 0
    <c1i> = 0
    <Mu_ssd> = 0
    <Sigma_ssd> = 0
    <innerangle> = 0
    <outerangle> = 0
  <EndBdry>
  <BeginBdry>
    <BdryName> = "pbc2"
    <BdryType> = 4
    <A_0> = 0
    <A_1> = 0
    <A_2> = 0
    <Phi> = 0
    <c0> = 0
    <c0i> = 0
    <c1> = 0
    <c1i> = 0
    <Mu_ssd> = 0
    <Sigma_ssd> = 0
    <innerangle> = 0
    <outerangle> = 0
  <EndBdry>
  <BeginBdry>
    <BdryName> = "pbc3"
    <BdryType> = 4
    <A_0> = 0
    <A_1> = 0
    <A_2> = 0
    <Phi> = 0
    <c0> = 0
    <c0i> = 0
    <c1> = 0
    <c1i> = 0
    <Mu_ssd> = 0
    <Sigma_ssd> = 0
    <innerangle> = 0
    <outerangle> = 0
  <EndBdry>
  <BeginBdry>
    <BdryName> = "pbc4"
    <BdryType> = 4
    <A_0> = 0
    <A_1> = 0
    <A_2> = 0
    <Phi> = 0
    <c0> = 0
    <c0i> = 0
    <c1> = 0
    <c1i> = 0
    <Mu_ssd> = 0
    <Sigma_ssd> = 0
    <innerangle> = 0
    <outerangle> = 0
  <EndBdry>
[BlockProps]  = 5
  <BeginBlock>
    <BlockName> = "air"
    <Mu_x> = 1
    <Mu_y> = 1
    <H_c> = 0
    <H_cAngle> = 0
    <J_re> = 0
    <J_im> = 0
    <Sigma> = 0
    <d_lam> = 0
    <Phi_h> = 0
    <Phi_hx> = 0
    <Phi_hy> = 0
    <LamType> = 0
    <LamFill> = 1
    <NStrands> = 0
    <WireD> = 0
    <BHPoints> = 0
  <EndBlock>
  <BeginBlock>
    <BlockName> = "steel"
    <Mu_x> = 1
    <Mu_y> = 1
    <H_c> = 0
    <H_cAngle> = 0
    <J_re> = 0
    <J_im> = 0
    <Sigma> = 5.7999999999999998
    <d_lam> = 0.5
    <Phi_h> = 0
    <Phi_hx> = 0
    <Phi_hy> = 0
    <LamType> = 0
    <LamFill> = 0.97999999999999998
    <NStrands> = 0
    <WireD> = 0
    <BHPoints> = 60
      0	0
      0.67085625500000001	200
      0.79152467800000004	300
      0.87141455499999998	400
      0.93123153700000005	500
      0.97906368300000002	600
      1.0189211	700
      1.0530867960000001	800
      1.0829850649999999	900
      1.109564545	1000
      1.1269532980000001	1100
      1.2036539900000001	1615.7894739999999
      1.2504264469999999	2131.578947
      1.2841759669999999	2647.3684210000001
      1.31059707	3163.1578949999998
      1.332311427	3678.9473680000001
      1.3507451150000001	4194.7368420000003
      1.366760558	4710.5263160000004
      1.3809192809999999	5226.3157890000002
      1.393607415	5742.1052630000004
      1.405101905	6257.8947369999996
      1.41560815	6773.6842109999998
      1.4252827100000001	7289.4736839999996
      1.4342476529999999	7805.2631579999997
      1.442600004	8321.0526320000008
      1.4504181519999999	8836.8421049999997
      1.4577663439999999	9352.6315790000008
      1.464697889	9868.421053
      1.47125751	10384.21053
      1.4765504380000001	11000
      1.477483095	10900
      1.488764478	12344.827590000001
      1.4989391080000001	13689.65517
      1.5076589229999999	15034.482760000001
      1.515288382	16379.31034
      1.52207011	17724.137930000001
      1.528173797	19068.965520000002
      1.533722786	20413.793099999999
      1.538809552	21758.62069
      1.5435052140000001	23103.448280000001
      1.547865643	24448.275860000002
      1.551935531	25793.103449999999
      1.5557511909999999	27137.93103
      1.5593425240000001	28482.758620000001
      1.56273445	29827.586210000001
      1.5659479510000001	31172.413789999999
      1.5690008660000001	32517.241379999999
      1.571908482	33862.06897
      1.5746840040000001	35206.896549999998
      1.5773389149999999	36551.724139999998
      1.5798832620000001	37896.551720000003
      1.5823258870000001	39241.379309999997
      1.5846746119999999	40586.206899999997
      1.5869363889999999	41931.034480000002
      1.5891174269999999	43275.862070000003
      1.5912232930000001	44620.689659999996
      1.593258995	45965.517240000001
      1.595229059	47310.344830000002
      1.597137587	48655.172409999999
      1.598988305	50000
  <EndBlock>
  <BeginBlock>
    <BlockName> = "FeSi65"
    <Mu_x> = 1
    <Mu_y> = 1
    <H_c> = 0
    <H_cAngle> = 0
    <J_re> = 0
    <J_im> = 0
    <Sigma> = 5.7999999999999998
    <d_lam> = 0
    <Phi_h> = 0
    <Phi_hx> = 0
    <Phi_hy> = 0
    <LamType> = 0
    <LamFill> = 1
    <NStrands> = 0
    <WireD> = 0
    <BHPoints> = 58
      0	0
      0.35829462699999998	235.7142857
      0.47802809200000002	371.42857140000001
      0.56314887199999997	507.14285710000001
      0.62924455599999995	642.85714289999999
      0.68328513800000001	778.57142859999999
      0.72899703699999996	914.2857143
      0.76860793599999999	1050
      0.80355628199999996	1185.7142859999999
      0.83482503100000005	1321.4285709999999
      0.86311572800000003	1457.142857
      0.88894663500000004	1592.857143
      0.91271148700000004	1728.5714290000001
      0.93471644799999998	1864.2857140000001
      0.95520429900000003	2000
      1.030452669	2571.4285709999999
      1.086202243	3142.8571430000002
      1.1306884020000001	3714.2857140000001
      1.167706237	4285.7142860000004
      1.199406524	4857.1428569999998
      1.2271268360000001	5428.5714289999996
      1.251755988	6000
      1.273914738	6571.4285710000004
      1.294053804	7142.8571430000002
      1.3125108000000001	7714.2857139999996
      1.3295451760000001	8285.7142860000004
      1.3453606300000001	8857.1428570000007
      1.3601200170000001	9428.5742900000005
      1.3739555889999999	10000
      1.4022484930000001	11379.31034
      1.4252685469999999	12758.62069
      1.443943891	14137.93103
      1.4596570209999999	15517.241379999999
      1.473220258	16896.551719999999
      1.485151723	18275.862069999999
      1.495802219	19655.172409999999
      1.5054203239999999	21034.482759999999
      1.5141886179999999	22413.793099999999
      1.522245155	23793.103449999999
      1.529696862	25172.413789999999
      1.5366282449999999	26551.724139999998
      1.54310725	27931.034479999998
      1.549189325	29310.344829999998
      1.5549203110000001	30689.655170000002
      1.5603385380000001	32068.965520000002
      1.5654763840000001	33448.275860000002
      1.570361444	34827.586210000001
      1.5750174320000001	6206.8965500000004
      1.5794648710000001	37586.206899999997
      1.5837216460000001	38965.517240000001
      1.5878034350000001	40344.827590000001
      1.5917240589999999	41724.137929999997
      1.595495761	43103.448279999997
      1.599129443	44482.758620000001
      1.6026348500000001	45862.06897
      1.6060207310000001	47241.379309999997
      1.609294969	48620.689659999996
      1.6124646920000001	50000
  <EndBlock>
  <BeginBlock>
    <BlockName> = "ml"
    <Mu_x> = 1
    <Mu_y> = 1
    <H_c> = 200106
    <H_cAngle> = 0
    <J_re> = 0
    <J_im> = 0
    <Sigma> = 0
    <d_lam> = 0
    <Phi_h> = 0
    <Phi_hx> = 0
    <Phi_hy> = 0
    <LamType> = 0
    <LamFill> = 1
    <NStrands> = 0
    <WireD> = 0
    <BHPoints> = 10
      0	0
      0.066000000000000003	1160
      0.13139000000000001	2323.6599999999999
      0.14399999999999999	3490
      0.15328	6000
      0.16239999999999999	11630
      0.17152999999999999	18613.200000000001
      0.21168000000000001	51192.199999999997
      0.27372000000000002	102376
      0.38685999999999998	200106
  <EndBlock>
  <BeginBlock>
    <BlockName> = "mr"
    <Mu_x> = 1
    <Mu_y> = 1
    <H_c> = 200106
    <H_cAngle> = 0
    <J_re> = 0
    <J_im> = 0
    <Sigma> = 0
    <d_lam> = 0
    <Phi_h> = 0
    <Phi_hx> = 0
    <Phi_hy> = 0
    <LamType> = 0
    <LamFill> = 1
    <NStrands> = 0
    <WireD> = 0
    <BHPoints> = 10
      0	0
      0.066000000000000003	1160
      0.13139000000000001	2323.6599999999999
      0.14399999999999999	3490
      0.15328	6000
      0.16239999999999999	11630
      0.17152999999999999	18613.200000000001
      0.21168000000000001	51192.199999999997
      0.27372000000000002	102376
      0.38685999999999998	200106
  <EndBlock>
[CircuitProps]  = 0
[NumPoints] = 309
0	22.5	0	1
0	43.25	0	1
22.5	0	0	1
43.25	0	0	1
5.3875970000000004	21.845452999999999	0	1
5.5311120000000003	22.381059	0	1
3.5392379999999992	24.954274000000002	0	1
3.726719999999998	36.820067000000002	0	1
15.588523	16.224919	0	1
15.980613	16.617008999999999	0	1
15.542206999999999	19.841415999999999	0	1
21.637467999999998	30.023754	0	1
21.612515999999999	6.256929999999997	0	1
22.148122000000001	6.400445999999997	0	1
23.380654	9.4120670000000004	0	1
33.750473	15.182600000000001	0	1
6.256929999999997	21.612515999999999	0	1
6.400445999999997	22.148122000000001	0	1
9.4120670000000004	23.380654	0	1
15.182600000000001	33.750473	0	1
16.224919	15.588523	0	1
16.617008999999999	15.980613	0	1
19.841415999999999	15.542206999999999	0	1
30.023754	21.637467999999998	0	1
21.845452999999999	5.3875970000000004	0	1
22.381059	5.5311120000000003	0	1
24.954274000000002	3.5392379999999992	0	1
36.820067000000002	3.726719999999998	0	1
9.5784164450395703	35.74713530974455	0	1
26.168719864704961	26.168719864704961	0	1
35.747135297405627	9.5784164910890368	0	1
4.8921068313657825	19.987123360966233	0	9
10.600019890829309	17.623412333807707	0	9
5.4799208328077391	21.406582969622566	0	9
11.187833892271268	19.042871942464057	0	9
7.0719695640176781	18.54324177203436	0	9
5.1254561775408281	19.349315020669021	0	9
3.9486718609256215	19.836634116634375	0	9
4.6285479289091986	21.759145921231724	0	9
12.0427188374194	18.688854255737699	0	9
0.14994444138114194	18.172690936345457	0	9
0.14990604491182014	14.941935639083573	0	9
8.0407036890067225	18.141978959130281	0	9
9.9870724448086392	17.33556762771304	0	9
11.163774789445476	16.848041395090476	0	9
12.67181364590992	12.983946143879081	0	9
10.387858837554127	10.699990724179839	0	9
17.521562291288081	10.703077840031249	0	9
19.886269323105267	4.9955785276553399	0	9
18.940918874759056	11.291139627303304	0	9
21.305625906576257	5.5836403149273943	0	9
19.248418567138536	5.2288189835665717	0	9
18.443318140431984	7.1720251507487705	0	9
18.041978849544087	8.1407035023379866	0	9
17.235567190885568	10.08707265035606	0	9
16.748041135137477	11.263774609175167	0	9
19.737160566663924	4.0491840899151814	0	9
21.659718294342472	4.7287856700490964	0	9
18.588281449402665	12.142481682199001	0	9
18.072691468680539	0.24994444452448086	0	9
14.841936723879908	0.24995276284913795	0	9
12.883945706487918	12.77181396858278	0	9
10.59999089813213	10.487858548883557	0	9
8.8817841970012523e-016	18.670650981329391	0	9
4.4408920985006262e-016	6.1000000000000032	0	9
6.0000000000000027	0.099999999999999784	0	9
18.57065098132939	0.10000000000000001	0	9
10.284268461575021	19.417049390625166	0	9
20.930872723057544	6.4869660582446134	0	9
9.6964544601330722	17.997589781968831	0	9
19.511516139586558	5.8989042709725563	0	9
11.986889566688752	18.547614723656828	0	9
13.13143379355494	13.231433202816392	0	9
4.2426406871192874	4.3426406871192889	0	9
3.768793425615419	19.660230610285602	0	9
4.5684230107276864	21.620444454669311	0	9
11.166232036074828	16.596110988792585	0	9
21.520444454669335	4.6684233212487865	0	9
18.447614943228395	12.086889347117173	0	9
19.560230610285597	3.8687937361365106	0	9
16.496111208364134	11.266231816503257	0	9
-21.845452999999999	5.3875970000000022	0	1
-22.381059	5.531112000000002	0	1
-24.954274000000002	3.5392380000000006	0	1
-36.820067000000002	3.7267200000000003	0	1
-16.224919	15.588523000000002	0	1
-16.617008999999999	15.980613000000002	0	1
-19.841415999999999	15.542207000000001	0	1
-30.023754	21.637468000000002	0	1
-6.2569299999999961	21.612515999999999	0	1
-6.4004459999999952	22.148122000000001	0	1
-9.4120669999999986	23.380654	0	1
-15.182599999999999	33.750473	0	1
-21.612515999999999	6.2569299999999979	0	1
-22.148122000000001	6.4004459999999987	0	1
-23.380654	9.4120670000000022	0	1
-33.750473	15.182600000000003	0	1
-15.588522999999999	16.224919	0	1
-15.980612999999998	16.617008999999999	0	1
-15.542206999999998	19.841415999999999	0	1
-21.637467999999995	30.023754	0	1
-5.3875969999999986	21.845452999999999	0	1
-5.5311119999999985	22.381059	0	1
-3.5392379999999979	24.954274000000002	0	1
-3.7267199999999958	36.820067000000002	0	1
-19.887123360966232	4.992106831365783	0	9
-17.897589781968833	9.7964544601330754	0	9
-21.306582969622557	5.5799208328077397	0	9
-17.523412333807705	10.70001989082931	0	9
-18.942871942464055	11.287833892271268	0	9
-18.443241772034359	7.1719695640176786	0	9
-19.24931502066902	5.2254561775408286	0	9
-19.736634116634367	4.048671860925622	0	9
-21.659145921231723	4.7285479289091992	0	9
-18.588854255737697	12.142718837419402	0	9
-18.072690936345449	0.24994444138114283	0	9
-14.841935639083573	0.24990604491182103	0	9
-18.041978959130279	8.1407036890067221	0	9
-17.235567627713042	10.087072444808639	0	9
-16.748041395090478	11.263774789445479	0	9
-12.883946143879081	12.771813645909919	0	9
-10.59999072417984	10.487858837554127	0	9
-10.603077840031249	17.621562291288082	0	9
-5.7989042709725549	19.611516139586559	0	9
-11.191139627303304	19.040918874759058	0	9
-4.8955785276553403	19.986269323105269	0	9
-5.4836403149273929	21.405625906576258	0	9
-5.1288189835665721	19.348418567138538	0	9
-7.0720251507487708	18.543318140431985	0	9
-8.0407035023379834	18.141978849544088	0	9
-9.9870726503560583	17.335567190885563	0	9
-11.163774609175167	16.848041135137478	0	9
-3.9491840899151818	19.837160566663925	0	9
-4.628785670049095	21.759718294342473	0	9
-12.042481682198998	18.688281449402666	0	9
-0.14994444452447997	18.17269146868054	0	9
-0.1499527628491375	14.941936723879907	0	9
-12.67181396858278	12.983945706487917	0	9
-10.387858548883557	10.69999089813213	0	9
-19.317049390625165	10.38426846157502	0	9
-6.3869660582446119	21.030872723057545	0	9
-43.25	2.6482987031561511e-015	0	1
-35.74713530974455	9.5784164450395721	0	1
-26.168719864704961	26.168719864704961	0	1
-9.578416491089035	35.747135297405627	0	1
-22.5	1.3777276490407724e-015	0	1
-18.447614723656827	12.086889566688752	0	9
-13.131433202816392	13.23143379355494	0	9
-4.2426406871192892	4.3426406871192871	0	9
-6.0000000000000036	0.10000000000000067	0	9
-19.560230610285601	3.8687934256154199	0	9
-21.52044445466931	4.6684230107276861	0	9
-16.496110988792584	11.266232036074827	0	9
-4.5684233212487868	21.620444454669336	0	9
-11.986889347117174	18.547614943228396	0	9
-3.7687937361365087	19.660230610285598	0	9
-11.166231816503254	16.596111208364135	0	9
-18.57065098132939	0.10000000000000178	0	9
-5.3875970000000031	-21.845452999999999	0	1
-5.5311120000000029	-22.381059	0	1
-3.5392380000000023	-24.954274000000002	0	1
-3.7267200000000025	-36.820067000000002	0	1
-15.588523000000002	-16.224918999999996	0	1
-15.980613000000002	-16.617008999999996	0	1
-15.542207000000001	-19.841415999999995	0	1
-21.637468000000002	-30.023753999999997	0	1
-21.612515999999999	-6.2569299999999943	0	1
-22.148122000000001	-6.4004459999999943	0	1
-23.380654	-9.4120669999999969	0	1
-33.750473	-15.182599999999997	0	1
-6.2569299999999997	-21.612515999999999	0	1
-6.4004459999999996	-22.148122000000001	0	1
-9.412067000000004	-23.380654	0	1
-15.182600000000004	-33.750473	0	1
-16.224919000000003	-15.588522999999999	0	1
-16.617009000000003	-15.980612999999998	0	1
-19.841416000000002	-15.542206999999998	0	1
-30.023754000000004	-21.637467999999995	0	1
-21.845452999999999	-5.3875969999999977	0	1
-22.381059	-5.5311119999999976	0	1
-24.954274000000002	-3.5392379999999961	0	1
-36.820067000000002	-3.7267199999999936	0	1
-4.8921068313657852	-19.78712336096623	0	9
-9.6964544601330758	-17.797589781968831	0	9
-5.4799208328077418	-21.206582969622556	0	9
-10.60001989082931	-17.423412333807704	0	9
-11.187833892271268	-18.842871942464054	0	9
-7.0719695640176816	-18.343241772034361	0	9
-5.1254561775408307	-19.149315020669018	0	9
-3.9486718609256233	-19.636634116634365	0	9
-4.6285479289092031	-21.559145921231721	0	9
-12.042718837419402	-18.488854255737696	0	9
-0.14994444138114371	-17.972690936345447	0	9
-0.1499060449118228	-14.741935639083577	0	9
-8.0407036890067225	-17.941978959130278	0	9
-9.9870724448086392	-17.135567627713041	0	9
-11.16377478944548	-16.648041395090477	0	9
-12.67181364590992	-12.783946143879081	0	9
-10.387858837554129	-10.499990724179842	0	9
-17.521562291288081	-10.503077840031249	0	9
-19.511516139586558	-5.6989042709725553	0	9
-18.940918874759056	-11.091139627303304	0	9
-19.886269323105267	-4.7955785276553407	0	9
-21.305625906576257	-5.3836403149273933	0	9
-19.248418567138536	-5.0288189835665706	0	9
-18.443318140431984	-6.9720251507487694	0	9
-18.041978849544087	-7.9407035023379837	0	9
-17.235567190885561	-9.8870726503560586	0	9
-16.748041135137477	-11.063774609175168	0	9
-19.737160566663924	-3.8491840899151799	0	9
-21.659718294342472	-4.5287856700490954	0	9
-18.588281449402665	-11.942481682198999	0	9
-18.072691468680539	-0.049944444524479076	0	9
-14.841936723879911	-0.049952762849136162	0	9
-12.883945706487918	-12.571813968582779	0	9
-10.599990898132129	-10.287858548883554	0	9
-10.284268461575021	-19.217049390625164	0	9
-20.930872723057544	-6.2869660582446123	0	9
21.845452999999999	-5.3875970000000049	0	1
22.381059	-5.5311120000000047	0	1
24.954274000000002	-3.5392380000000037	0	1
36.820067000000002	-3.7267200000000047	0	1
16.224918999999996	-15.588523000000004	0	1
16.617008999999996	-15.980613000000004	0	1
19.841415999999995	-15.542207000000003	0	1
30.023753999999997	-21.637468000000005	0	1
6.2569299999999934	-21.612515999999999	0	1
6.4004459999999925	-22.148122000000001	0	1
9.4120669999999951	-23.380654	0	1
15.182599999999995	-33.750473	0	1
21.612515999999999	-6.2569300000000005	0	1
22.148122000000001	-6.4004460000000014	0	1
23.380654	-9.4120670000000057	0	1
33.750473	-15.182600000000006	0	1
15.588522999999997	-16.224919000000003	0	1
15.980612999999996	-16.617009000000003	0	1
15.542206999999996	-19.841416000000002	0	1
21.637467999999991	-30.023754000000004	0	1
5.387596999999996	-21.845452999999999	0	1
5.5311119999999958	-22.381059	0	1
3.5392379999999948	-24.954274000000002	0	1
3.7267199999999914	-36.820067000000002	0	1
19.887123360966232	-4.7921068313657864	0	9
17.897589781968833	-9.5964544601330761	0	9
21.306582969622557	-5.379920832807743	0	9
17.523412333807705	-10.500019890829313	0	9
18.942871942464055	-11.087833892271272	0	9
18.443241772034366	-6.9719695640176838	0	9
19.24931502066902	-5.025456177540832	0	9
19.736634116634367	-3.848671860925625	0	9
21.659145921231723	-4.5285479289092043	0	9
18.588854255737697	-11.942718837419404	0	9
18.072690936345449	-0.049944441381144594	0	9
14.841935639083577	-0.049906044911823683	0	9
18.041978959130279	-7.9407036890067246	0	9
17.235567627713042	-9.8870724448086431	0	9
16.748041395090478	-11.06377478944548	0	9
12.883946143879081	-12.57181364590992	0	9
10.599990724179841	-10.287858837554129	0	9
10.603077840031245	-17.42156229128808	0	9
5.7989042709725531	-19.411516139586556	0	9
11.191139627303301	-18.840918874759055	0	9
4.8955785276553385	-19.786269323105266	0	9
5.4836403149273929	-21.205625906576255	0	9
5.1288189835665694	-19.148418567138528	0	9
7.0720251507487673	-18.343318140431982	0	9
8.0407035023379834	-17.941978849544086	0	9
9.9870726503560565	-17.13556719088556	0	9
11.163774609175164	-16.648041135137476	0	9
3.94918408991518	-19.637160566663923	0	9
4.6287856700490932	-21.559718294342471	0	9
12.042481682199002	-18.48828144940267	0	9
0.14994444452447819	-17.972691468680537	0	9
0.14995276284913528	-14.741936723879911	0	9
12.671813968582779	-12.783945706487918	0	9
10.387858548883553	-10.499990898132129	0	9
19.317049390625165	-10.184268461575025	0	9
6.3869660582446102	-20.830872723057542	0	9
-5.2965974063123023e-015	-43.25	0	1
-9.5784164450395739	-35.74713530974455	0	1
-26.168719864704965	-26.168719864704958	0	1
-35.747135297405627	-9.5784164910890333	0	1
-2.7554552980815448e-015	-22.5	0	1
-11.986889566688752	-18.347614723656825	0	9
-13.13143379355494	-13.031433202816396	0	9
-4.2426406871192874	-4.1426406871192896	0	9
-8.8817841970012523e-016	-5.9000000000000039	0	9
-3.7687934256154199	-19.460230610285599	0	9
-4.5684230107276882	-21.420444454669308	0	9
-11.166232036074828	-16.396110988792582	0	9
-21.520444454669335	-4.4684233212487836	0	9
-18.447614943228395	-11.886889347117174	0	9
-19.560230610285597	-3.6687937361365086	0	9
-16.496111208364134	-11.066231816503254	0	9
-2.6645352591003757e-015	-18.470650981329388	0	9
35.74713530974455	-9.5784164450395757	0	1
26.168719864704958	-26.168719864704965	0	1
9.5784164910890315	-35.747135297405627	0	1
18.447614723656827	-11.886889566688756	0	9
13.131433202816396	-13.031433793554941	0	9
4.2426406871192892	-4.1426406871192878	0	9
19.560230610285601	-3.6687934256154215	0	9
21.52044445466931	-4.4684230107276903	0	9
16.496110988792584	-11.066232036074831	0	9
4.5684233212487833	-21.420444454669333	0	9
11.98688934711717	-18.347614943228393	0	9
3.768793736136506	-19.460230610285599	0	9
11.166231816503254	-16.396111208364132	0	9
0	0.10000000000000001	0	9
[NumSegments] = 184
4	5	-1	0	0	1
5	6	-1	0	0	1
6	7	-1	0	0	1
8	9	-1	0	0	1
9	10	-1	0	0	1
10	11	-1	0	0	1
12	13	-1	0	0	1
13	14	-1	0	0	1
14	15	-1	0	0	1
16	17	-1	0	0	1
17	18	-1	0	0	1
18	19	-1	0	0	1
20	21	-1	0	0	1
21	22	-1	0	0	1
22	23	-1	0	0	1
24	25	-1	0	0	1
25	26	-1	0	0	1
26	27	-1	0	0	1
31	69	-1	0	0	9
31	33	-1	0	0	9
32	34	-1	0	0	9
35	36	-1	0	0	9
36	37	-1	0	0	9
33	38	-1	0	0	9
34	39	-1	0	0	9
40	41	-1	0	0	9
42	43	-1	0	0	9
43	44	-1	0	0	9
45	46	-1	0	0	9
47	70	-1	0	0	9
47	49	-1	0	0	9
48	50	-1	0	0	9
51	52	-1	0	0	9
53	54	-1	0	0	9
54	55	-1	0	0	9
51	56	-1	0	0	9
50	57	-1	0	0	9
49	58	-1	0	0	9
59	60	-1	0	0	9
61	62	-1	0	0	9
33	67	-1	0	0	9
49	68	-1	0	0	9
69	32	-1	0	0	9
67	69	-1	0	0	9
70	48	-1	0	0	9
68	70	-1	0	0	9
81	82	-1	0	0	1
82	83	-1	0	0	1
83	84	-1	0	0	1
85	86	-1	0	0	1
86	87	-1	0	0	1
87	88	-1	0	0	1
89	90	-1	0	0	1
90	91	-1	0	0	1
91	92	-1	0	0	1
93	94	-1	0	0	1
94	95	-1	0	0	1
95	96	-1	0	0	1
97	98	-1	0	0	1
98	99	-1	0	0	1
99	100	-1	0	0	1
101	102	-1	0	0	1
102	103	-1	0	0	1
103	104	-1	0	0	1
105	106	-1	0	0	9
105	107	-1	0	0	9
108	109	-1	0	0	9
110	111	-1	0	0	9
111	112	-1	0	0	9
107	113	-1	0	0	9
109	114	-1	0	0	9
115	116	-1	0	0	9
117	118	-1	0	0	9
118	119	-1	0	0	9
120	121	-1	0	0	9
122	123	-1	0	0	9
122	124	-1	0	0	9
125	126	-1	0	0	9
127	128	-1	0	0	9
129	130	-1	0	0	9
130	131	-1	0	0	9
127	132	-1	0	0	9
126	133	-1	0	0	9
124	134	-1	0	0	9
135	136	-1	0	0	9
137	138	-1	0	0	9
107	139	-1	0	0	9
124	140	-1	0	0	9
106	108	-1	0	0	9
139	106	-1	0	0	9
123	125	-1	0	0	9
140	123	-1	0	0	9
158	159	-1	0	0	1
159	160	-1	0	0	1
160	161	-1	0	0	1
162	163	-1	0	0	1
163	164	-1	0	0	1
164	165	-1	0	0	1
166	167	-1	0	0	1
167	168	-1	0	0	1
168	169	-1	0	0	1
170	171	-1	0	0	1
171	172	-1	0	0	1
172	173	-1	0	0	1
174	175	-1	0	0	1
175	176	-1	0	0	1
176	177	-1	0	0	1
178	179	-1	0	0	1
179	180	-1	0	0	1
180	181	-1	0	0	1
182	183	-1	0	0	9
182	184	-1	0	0	9
185	186	-1	0	0	9
187	188	-1	0	0	9
188	189	-1	0	0	9
184	190	-1	0	0	9
186	191	-1	0	0	9
192	193	-1	0	0	9
194	195	-1	0	0	9
195	196	-1	0	0	9
197	198	-1	0	0	9
199	200	-1	0	0	9
199	201	-1	0	0	9
202	203	-1	0	0	9
204	205	-1	0	0	9
206	207	-1	0	0	9
207	208	-1	0	0	9
204	209	-1	0	0	9
203	210	-1	0	0	9
201	211	-1	0	0	9
212	213	-1	0	0	9
214	215	-1	0	0	9
184	216	-1	0	0	9
201	217	-1	0	0	9
183	185	-1	0	0	9
216	183	-1	0	0	9
200	202	-1	0	0	9
217	200	-1	0	0	9
218	219	-1	0	0	1
219	220	-1	0	0	1
220	221	-1	0	0	1
222	223	-1	0	0	1
223	224	-1	0	0	1
224	225	-1	0	0	1
226	227	-1	0	0	1
227	228	-1	0	0	1
228	229	-1	0	0	1
230	231	-1	0	0	1
231	232	-1	0	0	1
232	233	-1	0	0	1
234	235	-1	0	0	1
235	236	-1	0	0	1
236	237	-1	0	0	1
238	239	-1	0	0	1
239	240	-1	0	0	1
240	241	-1	0	0	1
242	243	-1	0	0	9
242	244	-1	0	0	9
245	246	-1	0	0	9
247	248	-1	0	0	9
248	249	-1	0	0	9
244	250	-1	0	0	9
246	251	-1	0	0	9
252	253	-1	0	0	9
254	255	-1	0	0	9
255	256	-1	0	0	9
257	258	-1	0	0	9
259	260	-1	0	0	9
259	261	-1	0	0	9
262	263	-1	0	0	9
264	265	-1	0	0	9
266	267	-1	0	0	9
267	268	-1	0	0	9
264	269	-1	0	0	9
263	270	-1	0	0	9
261	271	-1	0	0	9
272	273	-1	0	0	9
274	275	-1	0	0	9
244	276	-1	0	0	9
261	277	-1	0	0	9
243	245	-1	0	0	9
276	243	-1	0	0	9
260	262	-1	0	0	9
277	260	-1	0	0	9
[NumArcSegments] = 132
3	1	90	5	1	0	0	5
19	28	9.2200000000000131	5	0	0	1	5
28	7	9.2199999999999989	5	0	0	1	5
23	29	9.2199999999999989	5	1	0	0	5
29	11	9.2199999999999989	5	0	0	1	5
27	30	9.2200000738041865	5	0	0	1	5
30	15	9.2199999261958094	5	0	0	1	5
4	0	13.860000000000014	5	0	0	1	5
8	16	27.699999999999996	5	0	0	1	5
12	20	27.699999999999996	5	0	0	1	5
2	24	13.84	5	0	0	1	5
71	72	65.699999999999989	5	0	0	9	5
73	64	44.999999999999993	5	0	0	9	5
40	74	41.573169000000121	5	0	0	9	5
41	35	53.007767000000001	5	0	0	9	5
74	37	2.6188489999999547	5	0	0	9	5
75	38	1.728053999999986	5	0	0	9	5
39	71	1.7360630000000015	5	0	0	9	5
76	45	41.572594000000123	5	0	0	9	5
42	46	53.007153000000017	5	0	0	9	5
44	76	2.6188549999999111	5	0	0	9	5
77	66	65.700001774712504	5	0	0	9	5
72	78	65.699999999999989	5	0	0	9	5
79	59	41.573168999999893	5	0	0	9	5
52	60	53.008076000000017	5	0	0	9	5
61	80	41.572593999999896	5	0	0	9	5
62	53	53.007152999999988	5	0	0	9	5
80	55	2.6188549999999964	5	0	0	9	5
56	79	2.6264790000000175	5	0	0	9	5
57	77	1.7352329999999938	5	0	0	9	5
78	58	1.7289729999999963	5	0	0	9	5
63	75	65.699998225287402	5	0	0	9	5
65	73	44.999999999999993	5	0	0	9	5
1	141	90	5	1	0	0	5
96	142	9.2200000000000131	5	0	0	1	5
142	84	9.2199999999999989	5	0	0	1	5
100	143	9.2199999999999989	5	1	0	0	5
143	88	9.2199999999999989	5	0	0	1	5
104	144	9.2200000738041865	5	0	0	1	5
144	92	9.2199999261958094	5	0	0	1	5
81	145	13.860000000000014	5	0	0	1	5
85	93	27.699999999999996	5	0	0	1	5
89	97	27.699999999999996	5	0	0	1	5
0	101	13.84	5	0	0	1	5
146	147	65.699999999999989	5	0	0	9	5
148	149	44.999999999999993	5	0	0	9	5
115	150	41.573169000000121	5	0	0	9	5
116	110	53.007767000000001	5	0	0	9	5
150	112	2.6188489999999547	5	0	0	9	5
151	113	1.728053999999986	5	0	0	9	5
114	146	1.7360630000000015	5	0	0	9	5
152	120	41.572594000000123	5	0	0	9	5
117	121	53.007153000000017	5	0	0	9	5
119	152	2.6188549999999111	5	0	0	9	5
153	63	65.700001774712504	5	0	0	9	5
147	154	65.699999999999989	5	0	0	9	5
155	135	41.573168999999893	5	0	0	9	5
128	136	53.008076000000017	5	0	0	9	5
137	156	41.572593999999896	5	0	0	9	5
138	129	53.007152999999988	5	0	0	9	5
156	131	2.6188549999999964	5	0	0	9	5
132	155	2.6264790000000175	5	0	0	9	5
133	153	1.7352329999999938	5	0	0	9	5
154	134	1.7289729999999963	5	0	0	9	5
157	151	65.699998225287402	5	0	0	9	5
64	148	44.999999999999993	5	0	0	9	5
141	278	90	5	1	0	0	5
173	279	9.2200000000000131	5	0	0	1	5
279	161	9.2199999999999989	5	0	0	1	5
177	280	9.2199999999999989	5	1	0	0	5
280	165	9.2199999999999989	5	0	0	1	5
181	281	9.2200000738041865	5	0	0	1	5
281	169	9.2199999261958094	5	0	0	1	5
158	282	13.860000000000014	5	0	0	1	5
162	170	27.699999999999996	5	0	0	1	5
166	174	27.699999999999996	5	0	0	1	5
145	178	13.84	5	0	0	1	5
283	284	65.699999999999989	5	0	0	9	5
285	286	44.999999999999993	5	0	0	9	5
192	287	41.573169000000121	5	0	0	9	5
193	187	53.007767000000001	5	0	0	9	5
287	189	2.6188489999999547	5	0	0	9	5
288	190	1.728053999999986	5	0	0	9	5
191	283	1.7360630000000015	5	0	0	9	5
289	197	41.572594000000123	5	0	0	9	5
194	198	53.007153000000017	5	0	0	9	5
196	289	2.6188549999999111	5	0	0	9	5
290	157	65.700001774712504	5	0	0	9	5
284	291	65.699999999999989	5	0	0	9	5
292	212	41.573168999999893	5	0	0	9	5
205	213	53.008076000000017	5	0	0	9	5
214	293	41.572593999999896	5	0	0	9	5
215	206	53.007152999999988	5	0	0	9	5
293	208	2.6188549999999964	5	0	0	9	5
209	292	2.6264790000000175	5	0	0	9	5
210	290	1.7352329999999938	5	0	0	9	5
291	211	1.7289729999999963	5	0	0	9	5
294	288	65.699998225287402	5	0	0	9	5
149	285	44.999999999999993	5	0	0	9	5
278	3	90	5	1	0	0	5
233	295	9.2200000000000131	5	0	0	1	5
295	221	9.2199999999999989	5	0	0	1	5
237	296	9.2199999999999989	5	1	0	0	5
296	225	9.2199999999999989	5	0	0	1	5
241	297	9.2200000738041865	5	0	0	1	5
297	229	9.2199999261958094	5	0	0	1	5
218	2	13.860000000000014	5	0	0	1	5
222	230	27.699999999999996	5	0	0	1	5
226	234	27.699999999999996	5	0	0	1	5
282	238	13.84	5	0	0	1	5
298	299	65.699999999999989	5	0	0	9	5
300	65	44.999999999999993	5	0	0	9	5
252	301	41.573169000000121	5	0	0	9	5
253	247	53.007767000000001	5	0	0	9	5
301	249	2.6188489999999547	5	0	0	9	5
302	250	1.728053999999986	5	0	0	9	5
251	298	1.7360630000000015	5	0	0	9	5
303	257	41.572594000000123	5	0	0	9	5
254	258	53.007153000000017	5	0	0	9	5
256	303	2.6188549999999111	5	0	0	9	5
304	294	65.700001774712504	5	0	0	9	5
299	305	65.699999999999989	5	0	0	9	5
306	272	41.573168999999893	5	0	0	9	5
265	273	53.008076000000017	5	0	0	9	5
274	307	41.572593999999896	5	0	0	9	5
275	266	53.007152999999988	5	0	0	9	5
307	268	2.6188549999999964	5	0	0	9	5
269	306	2.6264790000000175	5	0	0	9	5
270	304	1.7352329999999938	5	0	0	9	5
305	271	1.7289729999999963	5	0	0	9	5
66	302	65.699998225287402	5	0	0	9	5
286	300	44.999999999999993	5	0	0	9	5
[NumHoles] = 0
[NumBlockLabels] = 28
1.7763568394002505e-015	21.14163056034262	1	-1	0	0	9	1	0
3.5527136788005009e-015	39.597979746446654	2	-1	0	0	0	1	0
17.668364999999998	2.846054500000005	1	-1	0	0	9	1	0
14.435174500000009	10.651667000000007	1	-1	0	0	9	1	0
10.551666500000007	14.535174500000004	1	-1	0	0	9	1	0
2.7460545000000014	17.768364500000011	1	-1	0	0	9	1	0
2.4424906541753444e-015	7.099999337715543	3	-1	0	0	9	1	0
7.0444815000000016	19.993003000000016	4	-1	0	70.5	9	1	0
19.047677999999998	9.1852760000000107	5	-1	0	205.5	9	1	0
-2.7460545000000032	17.768364999999999	1	-1	0	0	9	1	0
-10.551667000000007	14.535174500000009	1	-1	0	0	9	1	0
-14.435174500000004	10.651666500000006	1	-1	0	0	9	1	0
-17.66836450000001	2.8460545000000024	1	-1	0	0	9	1	0