[Format]      =  4.0
[Frequency]   =  0
[Precision]   =  1e-008
[MinAngle]    =  30
[DoSmartMesh] =  1
[Depth]       =  37
[LengthUnits] =  millimeters
[ProblemType] =  planar
[Coordinates] =  cartesian
[ACSolver]    =  0
[PrevType]    =  0
[PrevSoln]    =  ""
[Comment]     =  "Add comments here."
[PointProps]   = 0
[BdryProps]   = 0
[BlockProps]  = 0
[CircuitProps]  = 0
[NumPoints] = 69
0	22.5	0	0
0	43.25	0	0
22.300000000000001	0	0	0
22.5	0	0	0
43.25	0	0	0
5.3875970000000004	21.845452999999999	0	0
5.5311120000000003	22.381059	0	0
3.5392379999999992	24.954274000000002	0	0
3.726719999999998	36.820067000000002	0	0
15.588523	16.224919	0	0
15.980613	16.617008999999999	0	0
15.542206999999999	19.841415999999999	0	0
21.637467999999998	30.023754	0	0
21.612515999999999	6.2569299999999979	0	0
22.148122000000001	6.4004459999999979	0	0
23.380654	9.4120670000000004	0	0
33.750473	15.182600000000001	0	0
6.2569299999999979	21.612515999999999	0	0
6.4004459999999979	22.148122000000001	0	0
9.4120670000000004	23.380654	0	0
15.182600000000001	33.750473	0	0
16.224919	15.588523	0	0
16.617008999999999	15.980613	0	0
19.841415999999999	15.542206999999999	0	0
30.023754	21.637467999999998	0	0
21.845452999999999	5.3875970000000004	0	0
22.381059	5.5311120000000003	0	0
24.954274000000002	3.5392379999999992	0	0
36.820067000000002	3.726719999999998	0	0
1.4000000000000001e-015	22.300000000000001	0	0
9.5784164450395721	35.74713530974455	0	0
6.4756524539505369	24.167464012338922	0	0
17.6918115	17.6918115	0	0
26.168719864704961	26.168719864704961	0	0
24.167463999999999	6.4756524999999989	0	0
35.747135297405627	9.578416491089035	0	0
0	0	0	0
6	0	0	0
0	6	0	0
0	22.100000000000001	0	0
22.100000000000001	0	0	0
11.982059	18.450752000000001	0	0
18.450752000000001	11.982059	0	0
16.724606042076818	16.724606042076818	0	0
13.155899	13.155900000000001	0	0
4.5740569999999998	21.519247	0	0
-9.9999999999999995e-007	18.605250999999999	0	0
-7.4648902970153586e-007	23.652165435749438	0	0
2.7117040000000001	19.395641000000001	0	0
21.519247	4.5740569999999998	0	0
18.605250999999999	9.9999999999999995e-007	0	0
23.652163866063859	2.535109699941529e-007	0	0
19.395641000000001	2.7117049999999998	0	0
12.802346	12.802346	0	0
12.767150000000001	12.837861	0	0
12.837861	12.767150000000001	0	0
10.681025	10.681025	0	0
10.645773	10.716483999999999	0	0
10.716483999999999	10.645773	0	0
9.2668110000000006	9.2668110000000006	0	0
9.2315389999999997	9.3022500000000008	0	0
9.3022500000000008	9.2315389999999997	0	0
6.4383840000000001	6.4383840000000001	0	0
6.4030889999999996	6.4737999999999998	0	0
6.4737999999999998	6.4030889999999996	0	0
5.1127450301742865	21.296115061257272	0	0
11.443370969825713	18.67388393874273	0	0
4.3473781654441073	19.448355996234699	0	0
10.678004105095534	16.826124873720158	0	0
[NumSegments] = 46
0	47	-1	0	0	0
2	3	-1	0	0	0
3	51	-1	0	0	0
5	6	-1	0	0	0
6	7	-1	0	0	0
7	8	-1	0	0	0
9	10	-1	0	0	0
10	11	-1	0	0	0
11	12	-1	0	0	0
13	14	-1	0	0	0
14	15	-1	0	0	0
15	16	-1	0	0	0
17	18	-1	0	0	0
18	19	-1	0	0	0
19	20	-1	0	0	0
21	22	-1	0	0	0
22	23	-1	0	0	0
23	24	-1	0	0	0
25	26	-1	0	0	0
26	27	-1	0	0	0
27	28	-1	0	0	0
29	0	-1	0	0	0
7	31	-1	0	0	0
31	19	-1	0	0	0
30	31	-1	0	0	0
11	32	-1	0	0	0
32	23	-1	0	0	0
32	33	-1	0	0	0
15	34	-1	0	0	0
34	27	-1	0	0	0
34	35	-1	0	0	0
47	1	-1	0	0	0
51	4	-1	0	0	0
38	46	-1	0	0	0
46	39	-1	0	0	0
37	50	-1	0	0	0
50	40	-1	0	0	0
57	54	-1	0	0	0
58	55	-1	0	0	0
63	60	-1	0	0	0
64	61	-1	0	0	0
65	45	-1	0	0	0
65	67	-1	0	0	0
66	41	-1	0	0	0
66	68	-1	0	0	0
67	68	-1	0	0	0
[NumArcSegments] = 20
4	1	90	1	0	0	0	1
20	30	9.2200000000000095	1	0	0	0	1
30	8	9.21999999999999	1	0	0	0	1
24	33	9.2199999999999989	1	0	0	0	1
33	12	9.2199999999999971	1	0	0	0	1
28	35	9.2200000738041901	1	0	0	0	1
35	16	9.2199999261958077	1	0	0	0	1
5	0	13.859999999999999	1	0	0	0	1
9	17	27.699999999999999	1	0	0	0	1
13	21	27.699999999999999	1	0	0	0	1
3	25	13.84	1	0	0	0	1
2	29	90	1	0	0	0	1
37	38	90	1	0	0	0	1
40	39	90	1	0	0	0	1
41	44	64.999991972472529	1	0	0	0	1
44	42	65.000008027527457	1	0	0	0	1
46	48	32.499999182873005	1	0	0	0	1
48	45	32.500000817126974	1	0	0	0	1
49	52	32.500002595047448	1	0	0	0	1
52	50	32.499997404952552	1	0	0	0	1
[NumHoles] = 0
[NumBlockLabels] = 0
